
  EPA STORM WATER MANAGEMENT MODEL - VERSION 5.1 (Build 5.1.013)
  --------------------------------------------------------------

  WARNING 04: minimum elevation drop used for Conduit FM-122
  WARNING 04: minimum elevation drop used for Conduit FM-123
  WARNING 04: minimum elevation drop used for Conduit FM-126
  WARNING 04: minimum elevation drop used for Conduit FM-134
  WARNING 04: minimum elevation drop used for Conduit FM-139
  WARNING 04: minimum elevation drop used for Conduit FM-14
  WARNING 04: minimum elevation drop used for Conduit FM-15
  WARNING 04: minimum elevation drop used for Conduit FM-150
  WARNING 04: minimum elevation drop used for Conduit FM-163
  WARNING 04: minimum elevation drop used for Conduit FM-165
  WARNING 04: minimum elevation drop used for Conduit FM-166
  WARNING 04: minimum elevation drop used for Conduit FM-17
  WARNING 04: minimum elevation drop used for Conduit FM-173
  WARNING 04: minimum elevation drop used for Conduit FM-183
  WARNING 04: minimum elevation drop used for Conduit FM-184
  WARNING 04: minimum elevation drop used for Conduit FM-191
  WARNING 04: minimum elevation drop used for Conduit FM-200
  WARNING 04: minimum elevation drop used for Conduit FM-201
  WARNING 04: minimum elevation drop used for Conduit FM-202
  WARNING 04: minimum elevation drop used for Conduit FM-208
  WARNING 04: minimum elevation drop used for Conduit FM-22
  WARNING 04: minimum elevation drop used for Conduit FM-232
  WARNING 04: minimum elevation drop used for Conduit FM-24
  WARNING 04: minimum elevation drop used for Conduit FM-251
  WARNING 04: minimum elevation drop used for Conduit FM-254
  WARNING 04: minimum elevation drop used for Conduit FM-284
  WARNING 04: minimum elevation drop used for Conduit FM-284B
  WARNING 04: minimum elevation drop used for Conduit FM-287
  WARNING 04: minimum elevation drop used for Conduit FM-291
  WARNING 04: minimum elevation drop used for Conduit FM-294
  WARNING 03: negative offset ignored for Link FM-311
  WARNING 04: minimum elevation drop used for Conduit FM-329
  WARNING 04: minimum elevation drop used for Conduit FM-347
  WARNING 04: minimum elevation drop used for Conduit FM-351
  WARNING 04: minimum elevation drop used for Conduit FM-359
  WARNING 04: minimum elevation drop used for Conduit FM-384
  WARNING 04: minimum elevation drop used for Conduit FM-391
  WARNING 04: minimum elevation drop used for Conduit FM-401
  WARNING 04: minimum elevation drop used for Conduit FM-403
  WARNING 04: minimum elevation drop used for Conduit FM-404
  WARNING 04: minimum elevation drop used for Conduit FM-405
  WARNING 04: minimum elevation drop used for Conduit FM-406
  WARNING 04: minimum elevation drop used for Conduit FM-407
  WARNING 04: minimum elevation drop used for Conduit FM-408
  WARNING 04: minimum elevation drop used for Conduit FM-409
  WARNING 04: minimum elevation drop used for Conduit FM-63
  WARNING 04: minimum elevation drop used for Conduit FM-77
  WARNING 04: minimum elevation drop used for Conduit FM-82
  WARNING 04: minimum elevation drop used for Conduit FM-95
  WARNING 04: minimum elevation drop used for Conduit G-6007
  WARNING 02: maximum depth increased for Node J-146
  WARNING 02: maximum depth increased for Node J-94
  
  *********************************************************
  NOTE: The summary statistics displayed in this report are
  based on results found at every computational time step,  
  not just on results from each reporting time step.
  *********************************************************
  
  ****************
  Analysis Options
  ****************
  Flow Units ............... GPM
  Process Models:
    Rainfall/Runoff ........ NO
    RDII ................... NO
    Snowmelt ............... NO
    Groundwater ............ NO
    Flow Routing ........... YES
    Ponding Allowed ........ NO
    Water Quality .......... NO
  Flow Routing Method ...... DYNWAVE
  Surcharge Method ......... EXTRAN
  Starting Date ............ 03/12/2010 00:00:00
  Ending Date .............. 03/13/2010 00:00:00
  Antecedent Dry Days ...... 5.0
  Report Time Step ......... 00:00:05
  Routing Time Step ........ 5.00 sec
  Variable Time Step ....... YES
  Maximum Trials ........... 8
  Number of Threads ........ 8
  Head Tolerance ........... 0.001000 ft
  
  
  **************************        Volume        Volume
  Flow Routing Continuity        acre-feet      10^6 gal
  **************************     ---------     ---------
  Dry Weather Inflow .......         8.561         2.790
  Wet Weather Inflow .......         0.000         0.000
  Groundwater Inflow .......         0.000         0.000
  RDII Inflow ..............         0.000         0.000
  External Inflow ..........         0.002         0.001
  External Outflow .........         6.185         2.015
  Flooding Loss ............         0.000         0.000
  Evaporation Loss .........         0.000         0.000
  Exfiltration Loss ........         0.000         0.000
  Initial Stored Volume ....         0.178         0.058
  Final Stored Volume ......         2.439         0.795
  Continuity Error (%) .....         1.341
  
  
  *************************
  Highest Continuity Errors
  *************************
  Node J-113 (100.00%)
  Node JCT-140 (100.00%)
  Node JCT-186 (100.00%)
  Node JCT-432 (100.00%)
  Node JCT-438 (100.00%)
  
  
  ***************************
  Time-Step Critical Elements
  ***************************
  Link CDT-523 (11.93%)
  Link FM-322B (8.67%)
  Link FM-284B (8.24%)
  Link FM-317B (6.38%)
  Link FM-323B (5.42%)
  
  
  ********************************
  Highest Flow Instability Indexes
  ********************************
  Link FM-284B (21)
  Link FM-208 (14)
  Link FM-170 (14)
  Link FM-384 (14)
  Link CDT-289 (13)
  
  
  *************************
  Routing Time Step Summary
  *************************
  Minimum Time Step           :     0.50 sec
  Average Time Step           :     4.12 sec
  Maximum Time Step           :     5.00 sec
  Percent in Steady State     :    -0.00
  Average Iterations per Step :     7.99
  Percent Not Converging      :    99.57
  
  
  ******************
  Node Depth Summary
  ******************
  
  ---------------------------------------------------------------------------------
                                 Average  Maximum  Maximum  Time of Max    Reported
                                   Depth    Depth      HGL   Occurrence   Max Depth
  Node                 Type         Feet     Feet     Feet  days hr:min        Feet
  ---------------------------------------------------------------------------------
  01-115               JUNCTION     0.15     0.22    -0.85     0  12:18        0.22
  01-124               JUNCTION     0.19     0.27    -1.01     0  12:19        0.27
  01-134               JUNCTION     0.13     0.18     0.39     0  13:27        0.18
  01-135               JUNCTION     0.17     0.23     1.12     0  13:25        0.23
  01-136               JUNCTION     0.15     0.22     2.07     0  13:20        0.22
  01-148               JUNCTION     0.14     0.21     2.95     0  13:13        0.21
  01-151               JUNCTION     0.24     0.36     3.06     0  13:10        0.36
  01-152               JUNCTION     0.17     0.28     3.29     0  13:07        0.28
  01-183               JUNCTION     0.12     0.15     5.82     0  12:40        0.15
  01-187               JUNCTION     0.09     0.11     4.57     0  12:42        0.11
  01-188               JUNCTION     0.10     0.13     6.66     0  12:38        0.13
  01-192               JUNCTION     0.09     0.12     7.49     0  12:36        0.12
  01-196               JUNCTION     0.09     0.11     8.31     0  12:34        0.11
  01-20                JUNCTION     0.12     0.23     1.63     0  12:09        0.23
  01-204               JUNCTION     0.07     0.10     9.15     0  12:32        0.10
  01-206               JUNCTION     0.06     0.11    10.95     0  14:00        0.11
  01-21                JUNCTION     0.25     0.43     1.89     0  12:08        0.43
  01-212               JUNCTION     0.03     0.04     6.90     0  11:12        0.04
  01-226               JUNCTION     0.11     0.20     3.89     0  13:06        0.20
  01-227               JUNCTION     0.09     0.17     5.33     0  13:03        0.17
  01-23                JUNCTION     0.18     0.41     2.17     0  12:03        0.41
  01-231               JUNCTION     0.10     0.19     6.86     0  13:01        0.19
  01-232               JUNCTION     0.06     0.22     8.24     0  19:47        0.22
  01-233               JUNCTION     0.05     0.26     9.05     0  19:46        0.26
  01-24                JUNCTION     0.12     0.41     2.52     0  19:31        0.41
  01-25                JUNCTION     0.11     0.14     2.66     0  12:00        0.14
  01-28                JUNCTION     0.12     0.15     3.10     0  11:45        0.15
  01-38                JUNCTION     0.09     0.12     3.38     0  12:00        0.12
  01-39                JUNCTION     0.74     0.77     3.38     0  12:00        0.77
  01-40                JUNCTION     0.08     0.10     3.48     0  12:00        0.10
  01-41                JUNCTION     0.14     0.17     4.03     0  12:00        0.17
  01-42                JUNCTION     0.15     0.17     4.08     0  12:00        0.17
  01-44                JUNCTION     0.10     0.11     4.57     0  12:00        0.11
  01-45                JUNCTION     0.06     0.09     6.30     0  23:49        0.09
  01-46                JUNCTION     0.04     0.09     7.47     0  23:47        0.09
  01-89                JUNCTION     0.16     0.28     1.05     0  12:11        0.28
  01-90                JUNCTION     0.16     0.28     0.70     0  12:14        0.28
  01-91                JUNCTION     0.19     0.30     0.42     0  12:17        0.30
  01-92                JUNCTION     0.17     0.25    -0.25     0  12:17        0.25
  01-A-40              JUNCTION     0.06     0.20     7.73     0  23:46        0.20
  01-A6                JUNCTION     0.10     0.18     6.39     0  23:47        0.18
  04-11                JUNCTION     0.08     0.16     3.69     0  12:00        0.16
  04-12                JUNCTION     0.10     0.17     2.31     0  12:01        0.17
  04-13                JUNCTION     0.10     0.15     1.18     0  12:02        0.15
  04-16                JUNCTION     0.15     0.19    -4.07     0  11:17        0.19
  04-18                JUNCTION     0.10     0.13    -4.28     0  11:30        0.13
  04-21                JUNCTION     0.13     0.16    -3.07     0  11:16        0.16
  04-27                JUNCTION     0.11     0.14    -1.67     0  11:14        0.14
  04-28                JUNCTION     0.11     0.15    -0.33     0  12:04        0.15
  05-23                JUNCTION     0.13     0.18    -7.73     0  11:21        0.18
  05-24                JUNCTION     0.14     0.20    -7.50     0  11:21        0.20
  05-25                JUNCTION     0.13     0.18    -6.97     0  11:21        0.18
  05-26                JUNCTION     0.16     0.21    -5.31     0  11:19        0.21
  05-27                JUNCTION     0.11     0.19    -4.81     0  11:17        0.19
  05-29                JUNCTION     0.08     0.21    -3.75     0  11:15        0.21
  05-30                JUNCTION     0.09     0.29    -3.48     0  11:15        0.29
  05-40                JUNCTION     0.13     0.18    -7.98     0  11:22        0.18
  06-04                JUNCTION     0.00     0.00     1.66     0  00:00        0.00
  06-09                JUNCTION     0.05     0.06    -4.19     0  12:00        0.06
  06-11                JUNCTION     0.24     0.29    -3.93     0  12:00        0.29
  06-12                JUNCTION     0.10     0.13    -3.21     0  12:00        0.13
  06-21                JUNCTION     0.00     0.00    -3.43     0  00:00        0.00
  06-22                JUNCTION     0.00     0.00    -2.69     0  00:00        0.00
  06-25                JUNCTION     0.00     0.00    -1.56     0  00:00        0.00
  06-27                JUNCTION     0.00     0.00    -0.91     0  00:00        0.00
  06-28                JUNCTION     0.00     0.00     0.17     0  00:00        0.00
  06-29                JUNCTION     0.00     0.00     1.20     0  00:00        0.00
  06-30                JUNCTION     0.00     0.00     2.20     0  00:00        0.00
  06-31                JUNCTION     0.00     0.00     3.06     0  00:00        0.00
  06-52                JUNCTION     0.11     0.13    -2.31     0  12:00        0.13
  06-53                JUNCTION     0.10     0.13    -0.91     0  12:00        0.13
  06-54                JUNCTION     0.10     0.12     0.43     0  12:00        0.12
  06-55                JUNCTION     0.09     0.12     0.79     0  12:00        0.12
  06-56                JUNCTION     0.09     0.12     2.07     0  12:00        0.12
  08-01                JUNCTION     0.11     0.14    -3.00     0  11:40        0.14
  08-02                JUNCTION     0.13     0.17    -2.61     0  11:40        0.17
  08-09                JUNCTION     0.11     0.15    -0.62     0  11:39        0.15
  08-13                JUNCTION     0.07     0.09     1.01     0  11:01        0.09
  08-14                JUNCTION     0.09     0.14     0.32     0  10:26        0.14
  08-19                JUNCTION     0.05     0.13     2.61     0  11:07        0.13
  09-01                JUNCTION     0.10     0.13     0.92     0  11:33        0.13
  09-02                JUNCTION     0.18     0.24     3.58     0  11:19        0.24
  09-03                JUNCTION     0.21     0.27     4.72     0  11:19        0.27
  09-04                JUNCTION     0.16     0.22     6.10     0  11:18        0.22
  09-06                JUNCTION     0.14     0.22     7.29     0  11:17        0.22
  1000-1               JUNCTION     0.06     0.09     3.51     0  12:18        0.09
  1000-13              JUNCTION     0.11     0.17    -1.03     0  11:30        0.17
  1000-14              JUNCTION     0.06     0.12     1.81     0  12:10        0.12
  1000-15              JUNCTION     0.07     0.16     3.26     0  12:10        0.16
  1000-16              JUNCTION     0.10     0.13    -3.77     0  11:33        0.13
  1000-17              JUNCTION     0.08     0.12    -1.79     0  11:32        0.12
  1000-18              JUNCTION     0.08     0.25    11.12     0  15:12        0.25
  1000-2               JUNCTION     0.06     0.09     2.39     0  12:19        0.09
  1000-20              JUNCTION     0.06     0.45    -6.21     0  12:35        0.45
  1000-23              JUNCTION     0.41     0.84    -5.34     0  10:41        0.84
  1000-24              JUNCTION     0.23     0.29     2.48     0  13:16        0.29
  1000-28              JUNCTION     0.08     0.13     5.27     0  10:29        0.13
  1000-29              JUNCTION     0.28     0.99    -4.41     0  12:58        0.97
  1000-3               JUNCTION     0.04     0.45    -5.91     0  20:42        0.45
  1000-4               JUNCTION     0.08     0.11     4.80     0  10:30        0.11
  1000-5               JUNCTION     0.10     0.14     4.32     0  11:41        0.14
  1000-6               JUNCTION     0.10     0.16     6.66     0  12:14        0.16
  1000-7               JUNCTION     0.11     0.47    -6.43     0  14:03        0.47
  1000-8               JUNCTION     0.16     0.23    -0.99     0  12:18        0.23
  1000-9               JUNCTION     0.18     0.23     2.43     0  11:20        0.23
  13-01                JUNCTION     0.09     0.38     0.14     0  00:01        0.38
  13-02                JUNCTION     0.08     0.10     0.81     0  12:00        0.10
  13-04                JUNCTION     0.07     0.09     1.15     0  12:00        0.09
  13-05                JUNCTION     0.06     0.07     2.19     0  12:00        0.07
  13-10                JUNCTION     0.05     0.06     2.97     0  11:51        0.06
  25-01                JUNCTION     0.06     0.11    -4.60     0  10:30        0.11
  25-02                JUNCTION     0.07     0.10    -4.36     0  11:00        0.10
  25-03                JUNCTION     0.21     0.28    -2.36     0  10:59        0.28
  25-06                JUNCTION     0.07     0.14    -3.69     0  10:29        0.14
  25-07                JUNCTION     0.06     0.13    -3.12     0  11:22        0.13
  25-08                JUNCTION     0.07     0.15    -2.49     0  11:22        0.15
  25-09                JUNCTION     0.06     0.14    -1.77     0  11:21        0.14
  25-10                JUNCTION     0.06     0.15    -1.30     0  11:20        0.15
  25-11                JUNCTION     0.06     0.15    -0.74     0  11:19        0.15
  25-12                JUNCTION     0.05     0.15    -0.31     0  11:19        0.15
  25-13                JUNCTION     0.06     0.18    -0.05     0  11:19        0.18
  27-34                JUNCTION     0.08     0.10     0.26     0  12:00        0.10
  27-35                JUNCTION     0.10     0.12     1.65     0  12:00        0.12
  27-36                JUNCTION     0.07     0.09     3.08     0  12:00        0.09
  27-37                JUNCTION     0.08     0.09     4.08     0  12:00        0.09
  27-47                JUNCTION     0.06     0.08     5.40     0  12:00        0.08
  27-A28               JUNCTION     0.04     0.05     7.31     0  12:00        0.05
  29-01A               JUNCTION     0.02     0.03     6.37     0  12:00        0.03
  29-03                JUNCTION     0.05     0.06     7.67     0  12:00        0.06
  29-08                JUNCTION     0.04     0.04     8.81     0  11:58        0.04
  29-09                JUNCTION     0.04     0.05     8.12     0  12:00        0.05
  34-01                JUNCTION     0.08     0.45    -6.30     0  11:15        0.45
  34-17                JUNCTION     0.11     0.15     2.05     0  12:19        0.15
  34-20                JUNCTION     0.11     0.15     3.30     0  12:17        0.15
  34-21                JUNCTION     0.11     0.16     4.72     0  12:17        0.16
  34-23                JUNCTION     0.10     0.17     7.19     0  12:12        0.17
  34-26                JUNCTION     0.13     0.24     7.94     0  12:11        0.24
  34-28                JUNCTION     0.09     0.20     9.62     0  12:09        0.20
  34-29                JUNCTION     0.04     0.05    10.06     0  11:51        0.05
  39-01                JUNCTION     0.10     0.14     1.79     0  11:37        0.14
  39-02                JUNCTION     0.13     0.18     2.03     0  11:37        0.18
  39-03                JUNCTION     0.10     0.13     4.29     0  11:38        0.13
  39-04                JUNCTION     0.09     0.12     5.70     0  12:41        0.12
  39-05                JUNCTION     0.09     0.12     7.10     0  12:38        0.12
  39-06                JUNCTION     0.08     0.12     8.57     0  12:36        0.12
  39-07                JUNCTION     0.07     0.13     9.97     0  12:33        0.13
  39-08                JUNCTION     0.06     0.19    11.43     0  12:31        0.19
  39-09                JUNCTION     0.10     0.16     3.67     0  11:36        0.16
  39-10                JUNCTION     0.13     0.20     4.48     0  11:34        0.20
  39-11                JUNCTION     0.13     0.22     5.25     0  11:30        0.22
  39-12                JUNCTION     0.09     0.18     5.87     0  11:28        0.18
  39-14                JUNCTION     0.10     0.20     6.43     0  11:27        0.20
  39-26                JUNCTION     0.09     0.19     7.30     0  11:25        0.19
  39-27                JUNCTION     0.08     0.22     7.88     0  11:23        0.22
  39-28                JUNCTION     0.09     0.24     8.71     0  11:23        0.24
  39-29                JUNCTION     0.07     0.26     9.43     0  11:21        0.26
  39-31                JUNCTION     0.06     0.26    10.47     0  11:21        0.26
  44-A34               JUNCTION     0.03     0.04    10.59     0  12:00        0.04
  57-01                JUNCTION     0.15     0.42     6.56     0  20:36        0.42
  57-01A               JUNCTION     0.41     0.77     5.96     0  11:47        0.77
  57-02                JUNCTION     0.15     0.53     7.76     0  20:35        0.53
  65-01                JUNCTION     0.08     0.12    -5.52     0  11:43        0.12
  65-28                JUNCTION     0.10     0.16    -4.59     0  11:43        0.16
  65-29                JUNCTION     0.10     0.16    -3.81     0  11:41        0.16
  65-30                JUNCTION     0.11     0.18    -2.55     0  11:41        0.18
  65-31                JUNCTION     0.10     0.19    -1.77     0  11:38        0.19
  65-32                JUNCTION     0.15     0.31    -0.62     0  11:37        0.31
  65-33                JUNCTION     0.06     0.20     4.50     0  11:35        0.20
  65-34                JUNCTION     0.07     0.27     5.64     0  11:35        0.27
  68-01                JUNCTION     0.07     0.11     3.14     0  11:42        0.11
  68-A                 JUNCTION     0.09     0.14     6.15     0  10:29        0.14
  68-B                 JUNCTION     0.06     0.19     9.70     0  10:24        0.18
  68-C                 JUNCTION     0.07     0.15     8.65     0  10:25        0.15
  68-D                 JUNCTION     0.08     0.14     7.36     0  10:27        0.14
  69-01                JUNCTION     0.08     0.11    -4.31     0  11:34        0.11
  77-01                JUNCTION     0.06     0.21     1.53     0  00:12        0.21
  FM-0B                JUNCTION     0.42     2.05     7.80     0  09:15        1.44
  J-1                  JUNCTION     2.40   149.54   155.54     0  00:00       50.28
  J-100                JUNCTION    20.61   131.78   131.78     0  01:42      126.68
  J-101                JUNCTION     4.61    23.79    29.55     0  00:31       23.32
  J-103                JUNCTION     4.37    82.01    87.01     0  00:00       48.55
  J-104                JUNCTION     5.43    37.58    41.58     0  05:57       32.27
  J-105                JUNCTION     2.00    17.59    19.59     0  09:23       16.92
  J-106                JUNCTION     5.52    33.72    41.72     0  22:54       33.72
  J-108                JUNCTION     3.23    33.07    43.07     0  01:03       31.25
  J-110                JUNCTION     3.74    39.82    45.82     0  02:37       31.10
  J-111                JUNCTION    15.12    58.59    68.59     0  12:35       58.49
  J-112                JUNCTION    12.53    85.56    89.56     0  12:41       83.66
  J-113                JUNCTION     0.09     0.09     7.09     0  00:00        0.09
  J-114                JUNCTION     2.32    62.37    64.37     0  05:16       62.35
  J-115                JUNCTION     5.03    37.26    47.26     0  12:26       37.01
  J-116                JUNCTION     5.04    37.34    47.34     0  12:26       37.05
  J-117                JUNCTION    13.96    56.91    66.91     0  12:35       56.80
  J-118                JUNCTION    13.95    56.56    66.56     0  12:35       56.32
  J-119                JUNCTION    13.90    56.55    66.55     0  12:35       56.51
  J-12                 JUNCTION     1.34    50.68    62.68     0  00:00        9.75
  J-120                JUNCTION     6.25    72.62    80.62     0  09:18       62.48
  J-121                JUNCTION    20.57    76.10    84.10     0  09:27       74.36
  J-123                JUNCTION    22.06    59.00    67.00     0  09:18       58.90
  J-124                JUNCTION     2.40    32.98    38.98     0  00:01       31.08
  J-125                JUNCTION    24.89    93.24    99.24     0  09:18       93.19
  J-126                JUNCTION    10.02   104.98   108.98     0  09:18       81.62
  J-127                JUNCTION    25.45   112.28   120.28     0  00:00      100.88
  J-128                JUNCTION    12.80    45.99    47.99     0  12:26       45.61
  J-129                JUNCTION    24.45    97.64   107.64     0  09:17       92.38
  J-131                JUNCTION    44.17   153.42   153.42     0  09:15      152.94
  J-132                JUNCTION     2.87    21.17    23.17     0  01:53       20.27
  J-133                JUNCTION    18.76    53.95    65.95     0  09:18       53.93
  J-134                JUNCTION    18.76    54.16    66.16     0  09:18       54.14
  J-135                JUNCTION    22.68   193.35   203.35     0  00:00      167.40
  J-136                JUNCTION    20.63    56.51    66.51     0  11:21       56.23
  J-137                JUNCTION    21.38    69.71    79.71     0  09:18       68.08
  J-138                JUNCTION    21.70    68.59    78.59     0  09:18       66.80
  J-139                JUNCTION    18.91    53.45    65.45     0  09:18       50.37
  J-14                 JUNCTION     1.48    16.94    26.94     0  10:47       16.34
  J-140                JUNCTION    19.06    55.69    67.69     0  09:18       50.93
  J-142                JUNCTION    18.77    50.45    62.45     0  09:18       49.77
  J-143                JUNCTION    20.58    51.96    61.96     0  09:18       51.01
  J-144                JUNCTION    20.59    50.74    60.74     0  09:18       50.61
  J-145                JUNCTION     6.44   148.64   158.64     0  11:21      148.64
  J-146                JUNCTION    18.69    51.25    63.25     0  09:18       50.10
  J-147                JUNCTION    18.69    51.07    63.07     0  09:18       49.78
  J-148                JUNCTION    19.24    63.60    75.60     0  09:26       59.27
  J-149                JUNCTION    18.71    51.93    63.93     0  09:18       50.78
  J-150                JUNCTION    15.68    26.84    40.84     0  09:22       26.74
  J-151                JUNCTION    15.67    26.64    40.64     0  09:22       26.63
  J-152                JUNCTION    17.96    33.74    45.74     0  09:11       32.32
  J-153                JUNCTION    17.97    37.00    49.00     0  09:11       35.41
  J-154                JUNCTION    18.25    33.94    45.94     0  10:42       33.92
  J-155                JUNCTION    16.32    33.05    47.05     0  09:12       32.90
  J-156                JUNCTION    17.61    58.62    72.62     0  03:42       55.42
  J-157                JUNCTION    20.79    69.88    81.88     0  01:09       63.31
  J-158                JUNCTION    19.61    55.79    67.79     0  10:42       55.60
  J-159                JUNCTION    11.27    76.76    76.76     0  00:00       57.18
  J-160                JUNCTION     1.18     8.60     8.60     0  20:40        8.58
  J-17                 JUNCTION     6.37    40.84    44.84     0  09:22       36.60
  J-19                 JUNCTION     4.51    47.05    55.05     0  09:11       45.96
  J-2                  JUNCTION     0.04     0.16     8.16     0  23:49        0.16
  J-20                 JUNCTION     1.98    54.67    59.67     0  12:50       54.63
  J-22                 JUNCTION     3.80    28.80    38.80     0  01:58       23.78
  J-23                 JUNCTION     4.13    26.25    36.25     0  09:29       25.90
  J-24                 JUNCTION     5.80    31.49    37.49     0  09:16       31.33
  J-25                 JUNCTION     5.80    31.24    37.24     0  09:16       31.11
  J-26                 JUNCTION     4.04    47.17    57.17     0  17:56       45.71
  J-28                 JUNCTION     0.83    66.18    70.18     0  00:00       66.14
  J-29                 JUNCTION     3.56    22.04    32.04     0  09:29       21.90
  J-3                  JUNCTION     0.52    47.65    53.65     0  00:00       19.76
  J-30                 JUNCTION     2.56    20.67    31.67     0  02:27       20.61
  J-31                 JUNCTION     1.65    41.27    53.27     0  00:02       28.84
  J-32                 JUNCTION     0.62     6.10    16.10     0  12:13        6.10
  J-33                 JUNCTION     4.99    43.37    49.37     0  09:29       38.61
  J-34                 JUNCTION     1.80    35.03    45.03     0  09:29       33.44
  J-35                 JUNCTION     0.71     6.61    16.61     0  12:14        6.61
  J-36                 JUNCTION     0.31     0.60    10.60     0  13:31        0.60
  J-37                 JUNCTION     5.76    27.90    37.90     0  10:56       27.35
  J-38                 JUNCTION     1.49     2.67     8.67     0  12:28        2.64
  J-39                 JUNCTION     0.34     1.01     9.01     0  13:37        1.01
  J-4                  JUNCTION     0.47    15.92    21.92     0  20:26       15.91
  J-40                 JUNCTION     3.14    22.66    34.66     0  17:04       22.64
  J-41                 JUNCTION     2.37    15.66    27.66     0  17:04       15.60
  J-43                 JUNCTION     2.71    23.40    25.40     0  00:25       22.72
  J-46                 JUNCTION    28.16   186.26   192.26     0  09:18      186.01
  J-47                 JUNCTION     1.61     3.46     9.46     0  12:28        3.40
  J-48                 JUNCTION     2.37    83.61    95.61     0  00:00       15.73
  J-49                 JUNCTION     3.01    96.19   108.19     0  00:00       66.21
  J-5                  JUNCTION     8.85    94.49   106.49     0  00:52       94.49
  J-50                 JUNCTION     2.26    30.02    41.02     0  00:00       18.06
  J-51                 JUNCTION     1.11    19.84    31.84     0  09:04       16.12
  J-52                 JUNCTION     6.24    22.37    28.37     0  09:18       22.20
  J-53                 JUNCTION     2.71    24.07    34.07     0  09:18       23.66
  J-54                 JUNCTION     2.85    20.75    30.75     0  09:18       19.89
  J-56                 JUNCTION     1.20    19.17    31.17     0  09:29       16.47
  J-58                 JUNCTION     0.82     7.64    19.64     0  13:08        5.35
  J-59                 JUNCTION     2.72    24.47    34.47     0  09:18       24.04
  J-6                  JUNCTION     1.42    44.58    55.58     0  09:27       38.09
  J-60                 JUNCTION     1.67    24.54    30.54     0  07:52       24.50
  J-61                 JUNCTION    27.95    73.33    77.33     0  12:36       73.33
  J-62                 JUNCTION     3.77    50.49    62.49     0  00:00       48.77
  J-64                 JUNCTION     4.52    31.74    43.74     0  17:03       31.74
  J-66                 JUNCTION     3.75    29.61    41.61     0  17:04       29.61
  J-67                 JUNCTION     1.76    30.65    42.65     0  23:01       29.03
  J-69                 JUNCTION     3.00    22.72    32.72     0  22:53       22.72
  J-70                 JUNCTION     2.40    39.41    47.41     0  09:18       36.65
  J-71                 JUNCTION     0.66    65.69    77.69     0  00:00       16.32
  J-73                 JUNCTION     8.18    44.92    48.92     0  12:37       44.92
  J-75                 JUNCTION     8.17    44.89    48.89     0  12:37       44.89
  J-76                 JUNCTION    21.35   127.00   139.00     0  09:18      125.12
  J-77                 JUNCTION     3.38    21.49    31.49     0  09:29       21.39
  J-78                 JUNCTION     3.22    21.46    31.46     0  09:29       21.44
  J-79                 JUNCTION     3.41    21.58    31.58     0  09:29       21.48
  J-8                  JUNCTION     1.57    22.01    32.01     0  20:18       20.10
  J-80                 JUNCTION    21.30   124.36   136.36     0  09:18      122.57
  J-81                 JUNCTION     4.02    26.06    32.06     0  00:26       25.86
  J-82                 JUNCTION    14.68    58.63    70.63     0  12:36       58.62
  J-83                 JUNCTION     2.72    49.83    59.83     0  06:52       45.21
  J-84                 JUNCTION    10.80    45.90    47.90     0  05:57       44.59
  J-85                 JUNCTION     1.68    26.55    38.55     0  22:53       26.55
  J-86                 JUNCTION     1.68    26.19    38.19     0  22:53       26.18
  J-87                 JUNCTION     4.76    47.09    53.09     0  09:20       42.22
  J-88                 JUNCTION     3.72    53.78    63.78     0  01:41       49.10
  J-89                 JUNCTION    17.97   102.06   110.06     0  00:00       62.05
  J-9                  JUNCTION     4.87    64.98    74.98     0  07:50       64.96
  J-90                 JUNCTION    17.84    61.94    69.94     0  12:36       61.93
  J-91                 JUNCTION     3.18    13.11    17.11     0  00:19       12.63
  J-92                 JUNCTION     3.98    31.47    33.47     0  00:01       30.71
  J-93                 JUNCTION    10.81    47.90    47.90     0  19:29       47.90
  J-94                 JUNCTION    18.43    58.86    51.56     0  19:29       58.85
  J-95                 JUNCTION     8.06    38.77    40.77     0  05:57       38.33
  J-96                 JUNCTION     4.39    34.45    44.45     0  09:30       34.25
  J-97                 JUNCTION     4.09    45.94    55.94     0  09:29       45.67
  J-98                 JUNCTION     4.43    34.63    44.63     0  09:30       34.43
  J-99                 JUNCTION     3.19    36.05    42.05     0  05:57       27.81
  JCT-122              JUNCTION    22.98    75.63    66.97     0  23:16       75.63
  JCT-124              JUNCTION     0.59    64.94    56.28     0  00:00       48.45
  JCT-126              JUNCTION    32.13    81.86    76.45     0  10:52       81.82
  JCT-128              JUNCTION     1.18    79.77    74.36     0  00:00       66.87
  JCT-130              JUNCTION    11.14    46.50    44.91     0  00:00       16.97
  JCT-132              JUNCTION    27.93    48.11    46.52     0  11:11       48.10
  JCT-134              JUNCTION     0.00     0.00    -1.00     0  00:00        0.00
  JCT-138              JUNCTION    14.32    62.00    61.00     0  09:11       59.23
  JCT-140              JUNCTION     0.49     0.49    -6.68     0  00:00        0.49
  JCT-142              JUNCTION    25.93    76.60    69.43     0  20:54       72.80
  JCT-144              JUNCTION    28.70    84.70    76.93     0  09:26       82.71
  JCT-148              JUNCTION     1.13    83.70    75.93     0  00:00       79.49
  JCT-150              JUNCTION    18.39    39.54    30.35     0  00:00       38.80
  JCT-152              JUNCTION     8.39    39.54    30.35     0  00:00       38.61
  JCT-154              JUNCTION    14.17    45.53    36.53     0  09:23       45.33
  JCT-156              JUNCTION     1.34    43.73    34.73     0  00:00       34.73
  JCT-162              JUNCTION    33.64   119.85   107.41     0  09:17      118.47
  JCT-164              JUNCTION     0.88   111.95    99.51     0  00:00      106.24
  JCT-166              JUNCTION     0.00     0.00   -14.50     0  00:00        0.00
  JCT-168              JUNCTION     0.00     0.00   -14.50     0  00:00        0.00
  JCT-170              JUNCTION     0.00     0.00     1.99     0  00:00        0.00
  JCT-172              JUNCTION    16.66    59.45    61.44     0  11:38       58.37
  JCT-176              JUNCTION     0.32   124.38   116.16     0  00:00       89.34
  JCT-178              JUNCTION    22.35   169.43   161.21     0  11:21      169.43
  JCT-180              JUNCTION    19.23   178.76   179.10     0  00:00      178.03
  JCT-182              JUNCTION    10.16   178.76   179.10     0  00:00      178.03
  JCT-184              JUNCTION    28.45    75.49    66.57     0  11:21       75.34
  JCT-186              JUNCTION     0.32     0.32    -8.60     0  00:00        0.32
  JCT-188              JUNCTION    11.75   115.57   112.40     0  00:00      115.17
  JCT-190              JUNCTION    23.32   115.57   112.40     0  00:00      115.17
  JCT-192              JUNCTION     0.91    57.88    51.95     0  00:00       48.05
  JCT-194              JUNCTION     0.91    57.88    51.95     0  00:00       48.05
  JCT-196              JUNCTION    15.60    66.35    60.43     0  01:41       65.73
  JCT-198              JUNCTION     0.99    62.79    56.87     0  00:00       53.12
  JCT-200              JUNCTION     0.00     0.00    -6.50     0  00:00        0.00
  JCT-202              JUNCTION    14.76    48.52    42.02     0  22:54       48.52
  JCT-204              JUNCTION     1.12    24.46    25.68     0  00:00       17.80
  JCT-206              JUNCTION     1.12    24.46    25.68     0  00:00       17.80
  JCT-208              JUNCTION     9.10    34.54    32.67     0  00:00       33.73
  JCT-210              JUNCTION     9.10    34.54    32.67     0  00:00       33.73
  JCT-212              JUNCTION     0.00     0.00    -3.00     0  00:00        0.00
  JCT-214              JUNCTION     9.23    67.78    64.78     0  04:40       67.24
  JCT-216              JUNCTION    10.88    25.45    23.23     0  00:00       25.07
  JCT-218              JUNCTION     9.63    25.45    23.23     0  00:00       25.07
  JCT-222              JUNCTION    19.70    48.74    40.59     0  00:00       47.73
  JCT-224              JUNCTION    19.76    48.74    40.59     0  00:00       47.73
  JCT-226              JUNCTION    18.01    47.20    44.19     0  17:03       47.20
  JCT-228              JUNCTION     1.31    45.32    42.31     0  00:00       34.67
  JCT-230              JUNCTION     5.63    48.12    44.86     0  00:00       44.99
  JCT-232              JUNCTION    13.66    48.12    44.86     0  00:00       46.70
  JCT-234              JUNCTION    13.95    50.56    46.94     0  00:00       48.19
  JCT-236              JUNCTION     5.17    50.56    46.94     0  00:00       43.81
  JCT-238              JUNCTION     0.79    50.20    49.93     0  00:00       44.94
  JCT-240              JUNCTION     0.79    50.20    49.93     0  00:00       44.94
  JCT-242              JUNCTION     0.37    77.34    79.21     0  00:00       77.32
  JCT-244              JUNCTION    11.69    79.20    81.07     0  00:00       78.27
  JCT-246              JUNCTION     4.93    40.11    38.10     0  00:00       38.41
  JCT-248              JUNCTION    12.71    40.67    38.66     0  09:29       39.46
  JCT-250              JUNCTION     1.46    32.95    29.52     0  00:00       24.11
  JCT-252              JUNCTION    11.71    33.64    30.21     0  11:00       33.59
  JCT-254              JUNCTION    23.10   124.17   119.67     0  09:27      104.12
  JCT-256              JUNCTION     0.00     0.00    -4.50     0  00:00        0.00
  JCT-258              JUNCTION     0.00     0.00    -4.50     0  00:00        0.00
  JCT-260              JUNCTION     2.07    40.53    32.29     0  00:00       38.56
  JCT-262              JUNCTION     8.44    40.53    32.29     0  00:00       38.56
  JCT-264              JUNCTION     7.18    78.95    75.93     0  00:00       78.93
  JCT-266              JUNCTION     8.33    78.95    75.93     0  00:00       78.93
  JCT-268              JUNCTION     0.00     0.00    -5.92     0  00:00        0.00
  JCT-270              JUNCTION    13.48    59.05    53.13     0  17:57       58.21
  JCT-272              JUNCTION     0.00     0.00    -5.58     0  00:00        0.00
  JCT-274              JUNCTION     0.00     0.00    -5.58     0  00:00        0.00
  JCT-276              JUNCTION     0.00     0.00     0.52     0  00:00        0.00
  JCT-280              JUNCTION     6.16    58.48    59.00     0  06:52       56.44
  JCT-282              JUNCTION     0.00     0.00    -1.00     0  00:00        0.00
  JCT-284              JUNCTION     7.99    40.37    39.37     0  02:53       35.38
  JCT-286              JUNCTION     2.08    31.32    21.29     0  00:00       30.89
  JCT-288              JUNCTION     2.08    31.32    21.29     0  00:00       30.89
  JCT-290              JUNCTION     9.95    71.79    71.60     0  09:18       71.66
  JCT-292              JUNCTION     0.00     0.00    -0.19     0  00:00        0.00
  JCT-294              JUNCTION     9.56    62.45    62.46     0  00:00       58.16
  JCT-296              JUNCTION     0.99    62.45    62.46     0  00:00       58.16
  JCT-298              JUNCTION     0.63    65.08    65.30     0  00:00       49.88
  JCT-300              JUNCTION     0.63    65.08    65.30     0  00:00       49.88
  JCT-302              JUNCTION     0.00     0.00    -4.77     0  00:00        0.00
  JCT-304              JUNCTION    15.28    49.93    45.16     0  23:58       49.92
  JCT-306              JUNCTION     0.00     0.00    -0.56     0  00:00        0.00
  JCT-308              JUNCTION    11.69    48.34    47.78     0  09:04       47.66
  JCT-312              JUNCTION     0.48    61.08    59.81     0  00:00       54.49
  JCT-314              JUNCTION    10.08    61.08    59.81     0  00:00       54.49
  JCT-316              JUNCTION     2.03    64.32    64.99     0  00:00       56.54
  JCT-318              JUNCTION     2.03    64.32    64.99     0  00:00       56.54
  JCT-322              JUNCTION     0.79    21.48    15.56     0  00:00       17.32
  JCT-324              JUNCTION     8.65    23.15    17.23     0  07:30       23.09
  JCT-326              JUNCTION     0.00     0.00   -12.12     0  00:00        0.00
  JCT-328              JUNCTION    40.77   165.45   153.33     0  09:15      165.35
  JCT-330              JUNCTION    10.36    57.01    54.17     0  00:00       28.18
  JCT-332              JUNCTION    17.82    69.45    66.61     0  12:35       69.03
  JCT-334              JUNCTION    10.76    39.69    34.71     0  00:00       34.34
  JCT-336              JUNCTION     6.84    39.69    34.71     0  00:00       38.26
  JCT-338              JUNCTION    33.78   105.44    95.35     0  09:27      100.80
  JCT-340              JUNCTION     0.80   103.94    93.85     0  00:00       91.86
  JCT-342              JUNCTION     1.28    46.82    41.82     0  00:00       45.13
  JCT-344              JUNCTION     7.39    46.82    41.82     0  00:00       46.20
  JCT-346              JUNCTION     0.45    72.14    66.88     0  00:00       66.82
  JCT-348              JUNCTION    19.26    88.41    83.15     0  12:41       87.96
  JCT-350              JUNCTION     2.86    61.54    60.08     0  00:00       59.49
  JCT-352              JUNCTION     6.29    60.62    59.16     0  00:00       57.94
  JCT-354              JUNCTION     2.87    33.93    26.75     0  00:00       10.65
  JCT-356              JUNCTION     8.63    33.93    26.75     0  00:00       24.42
  JCT-358              JUNCTION    12.14    45.19    42.35     0  05:16       45.18
  JCT-360              JUNCTION     0.40    44.70    41.86     0  00:00       42.26
  JCT-362              JUNCTION     5.06    57.83    52.53     0  00:00       57.82
  JCT-364              JUNCTION    11.00    57.83    52.53     0  00:00       57.82
  JCT-366              JUNCTION     0.00     0.00    -9.00     0  00:00        0.00
  JCT-370              JUNCTION    13.60    53.96    44.96     0  09:22       47.26
  JCT-372              JUNCTION     4.93    37.82    29.98     0  00:00       21.51
  JCT-374              JUNCTION    14.39    60.96    53.12     0  19:29       60.95
  JCT-376              JUNCTION     7.23    34.68    30.33     0  00:00       33.43
  JCT-380              JUNCTION     6.49    34.68    30.33     0  00:00       33.43
  JCT-382              JUNCTION    16.44    72.53    67.39     0  18:47       72.49
  JCT-384              JUNCTION    12.40    60.98    55.84     0  00:00       54.18
  JCT-386              JUNCTION    13.28    53.01    49.20     0  09:20       50.03
  JCT-388              JUNCTION     0.82    50.69    46.88     0  00:00       46.96
  JCT-390              JUNCTION     0.48    81.86    75.63     0  00:00       63.48
  JCT-392              JUNCTION    33.33    85.03    78.80     0  12:36       85.03
  JCT-394              JUNCTION    15.08    34.63    27.74     0  00:00       33.43
  JCT-396              JUNCTION     0.98    34.63    27.74     0  00:00       32.08
  JCT-398              JUNCTION     0.00     0.00    -9.72     0  00:00        0.00
  JCT-402              JUNCTION    35.57   204.31   194.59     0  09:18      203.92
  JCT-404              JUNCTION     0.00     0.00    -9.72     0  00:00        0.00
  JCT-406              JUNCTION     0.41    40.34    33.71     0  00:00       29.58
  JCT-408              JUNCTION     8.29    40.34    33.71     0  00:00       37.22
  JCT-410              JUNCTION     5.31    56.31    49.81     0  09:18       53.74
  JCT-412              JUNCTION     0.00     0.00    -6.50     0  00:00        0.00
  JCT-414              JUNCTION     0.28    56.86    55.06     0  00:00       52.44
  JCT-416              JUNCTION     5.84    67.41    65.61     0  05:16       67.39
  JCT-418              JUNCTION    26.09   139.05   128.47     0  01:42      135.51
  JCT-420              JUNCTION     0.00     0.00   -10.58     0  00:00        0.00
  JCT-422              JUNCTION     3.26    34.27    18.72     0  00:00       34.08
  JCT-424              JUNCTION    19.40    34.55    19.00     0  09:29       34.17
  JCT-426              JUNCTION    16.26    58.52    50.02     0  00:00       57.60
  JCT-428              JUNCTION     2.34    58.52    50.02     0  00:00       13.88
  JCT-430              JUNCTION    10.62    46.36    38.86     0  18:41       46.01
  JCT-432              JUNCTION     0.66     0.66    -6.84     0  00:00        0.66
  JCT-434              JUNCTION     0.00     0.00    -3.00     0  00:00        0.00
  JCT-436              JUNCTION     7.65    47.54    44.54     0  11:16       46.93
  JCT-438              JUNCTION     0.62     0.62    -4.87     0  00:00        0.62
  JCT-440              JUNCTION    13.90    60.54    55.05     0  09:11       59.90
  JCT-442              JUNCTION    11.49    33.35    29.06     0  00:00       29.39
  JCT-444              JUNCTION    11.67    33.35    29.06     0  00:00       30.39
  JCT-446              JUNCTION     2.02    75.76    70.63     0  00:00       68.11
  JCT-448              JUNCTION     6.08    75.76    70.63     0  00:00       71.74
  JCT-450              JUNCTION    12.58    53.10    40.05     0  19:29       52.92
  JCT-452              JUNCTION     0.55     0.55   -12.50     0  00:00        0.55
  JCT-454              JUNCTION    10.81    41.97    35.65     0  04:40       40.89
  JCT-456              JUNCTION     0.28     0.28    -6.04     0  00:00        0.28
  JCT-458              JUNCTION     0.05     0.05     0.66     0  00:00        0.05
  JCT-460              JUNCTION     7.43    45.41    46.02     0  09:27       45.32
  JCT-462              JUNCTION     0.88    86.32    79.82     0  00:00       64.72
  JCT-464              JUNCTION    17.07    86.32    79.82     0  00:00       81.55
  JCT-466              JUNCTION     0.30    84.28    94.65     0  00:00       78.02
  JCT-468              JUNCTION    10.53    96.37   106.74     0  00:52       96.36
  JCT-470              JUNCTION     1.43    36.75    36.05     0  00:00       34.14
  JCT-472              JUNCTION     6.84    36.84    36.14     0  00:00       33.70
  JCT-474              JUNCTION    10.50    79.32    73.41     0  00:00       64.97
  JCT-476              JUNCTION     0.29    79.32    73.41     0  00:00       54.01
  JCT-478              JUNCTION     1.38    28.32    20.47     0  13:15       24.36
  JCT-482              JUNCTION     0.00     0.00    -7.85     0  00:00        0.00
  JCT-484              JUNCTION     0.73     6.75    16.75     0  12:14        6.75
  JCT-576              JUNCTION     0.17     2.35    14.85     0  14:57        2.09
  JCT-578              JUNCTION     0.54     6.25    13.25     0  09:18        5.32
  JCT-580              JUNCTION     0.44     3.08    11.08     0  07:16        2.57
  JCT-582              JUNCTION     0.33     1.94    14.94     0  00:11        1.49
  JCT-584              JUNCTION     0.14     0.18    12.68     0  00:01        0.18
  JCT-586              JUNCTION     0.30     1.45    14.20     0  17:04        1.26
  JCT-588              JUNCTION     0.35     0.76    13.76     0  12:31        0.76
  JCT-590              JUNCTION     0.46     3.34    15.84     0  18:17        2.23
  JCT-592              JUNCTION     0.33     1.25    13.00     0  11:52        1.10
  JCT-594              JUNCTION     0.00     0.00     7.75     0  00:00        0.00
  JCT-596              JUNCTION     0.29     2.25     6.00     0  20:18        1.96
  JCT-598              JUNCTION     0.12     0.24    14.24     0  12:36        0.24
  JCT-600              JUNCTION     0.28     0.46     4.21     0  11:06        0.46
  JCT-602              JUNCTION     0.57     9.41    16.66     0  03:20        8.78
  JCT-604              JUNCTION     0.50     0.92     8.17     0  13:42        0.92
  JCT-606              JUNCTION     0.48     2.82    10.32     0  21:39        2.65
  JCT-608              JUNCTION     0.33     3.37    15.12     0  09:28        2.12
  JCT-610              JUNCTION     0.43    22.39    27.39     0  02:41        9.97
  JCT-612              JUNCTION     0.52     3.94    16.94     0  23:40        3.18
  JCT-614              JUNCTION     0.08     1.42    10.17     0  23:46        1.19
  JCT-616              JUNCTION     0.30     3.62    15.62     0  18:40        2.92
  JCT-618              JUNCTION     0.00     0.02     8.77     0  20:29        0.02
  JCT-620              JUNCTION     0.70     8.22    21.22     0  09:24        6.27
  JCT-622              JUNCTION     0.46     1.50     8.25     0  12:43        1.47
  JCT-624              JUNCTION     1.31    11.27    25.02     0  04:35        8.24
  JCT-626              JUNCTION     0.31     1.92    14.67     0  09:22        1.17
  OFALL-10             OUTFALL     23.27    23.55    38.55     0  10:43       23.55
  LS-00                STORAGE      1.63     2.97     2.27     0  00:00        2.73
  LS-01                STORAGE      1.72     4.99    -1.51     0  00:00        4.87
  LS-02                STORAGE      2.13     3.00    -3.50     0  14:51        3.00
  LS-03                STORAGE      2.30     2.98    -4.52     0  00:00        2.85
  LS-04                STORAGE      3.08     4.01    -4.49     0  13:49        4.01
  LS-05                STORAGE      1.70     2.51    -8.07     0  11:04        2.50
  LS-06                STORAGE      4.81     5.71    -7.34     0  13:09        5.70
  LS-07                STORAGE      4.15     5.08    -4.64     0  12:01        5.08
  LS-08                STORAGE      1.68     2.50    -3.42     0  10:19        2.50
  LS-09                STORAGE      3.64     4.95    -1.28     0  11:19        4.95
  LS-10                STORAGE      0.64     1.44    -4.14     1  00:00        1.44
  LS-1002              STORAGE      1.72     2.43    12.80     0  00:00        2.00
  LS-1004              STORAGE      1.53     2.50     1.50     0  10:37        2.50
  LS-11                STORAGE      3.22     6.96     1.82     0  00:00        6.38
  LS-12                STORAGE      4.43     6.01     1.01     0  10:06        6.01
  LS-13                STORAGE      3.26     7.99     2.69     0  00:00        7.77
  LS-14                STORAGE      3.02     4.15     1.31     0  13:53        4.15
  LS-15                STORAGE      1.90     6.97     7.64     0  00:00        6.43
  LS-16                STORAGE      1.90     5.96     6.18     0  00:00        5.40
  LS-17                STORAGE      2.24     3.18     1.91     0  10:02        3.18
  LS-18                STORAGE      1.81     2.47     2.48     0  00:00        2.31
  LS-19                STORAGE      3.55     5.47     4.91     0  09:49        5.46
  LS-20                STORAGE      1.27     1.50     1.31     0  10:57        1.49
  LS-21                STORAGE      3.03     4.28    -0.49     0  12:04        4.28
  LS-22                STORAGE      1.51     2.51     1.51     0  11:23        2.51
  LS-23                STORAGE      2.07     2.48     3.00     0  11:23        2.48
  LS-24                STORAGE      1.93     2.55    -1.26     0  11:22        2.54
  LS-25                STORAGE      2.10     2.82    -5.02     0  20:02        2.81
  LS-26                STORAGE      2.95     4.50     5.11     0  17:15        4.50
  LS-27                STORAGE      2.14     2.91    -3.01     0  10:29        2.91
  LS-28                STORAGE      1.64     2.47    -3.46     0  00:00        2.07
  LS-29                STORAGE      3.22     5.00     2.00     0  11:25        5.00
  LS-30                STORAGE      3.64     4.91    -1.59     0  11:53        4.91
  LS-31                STORAGE      1.68     2.50     4.49     0  10:25        2.50
  LS-32                STORAGE      3.19     5.81    -6.31     0  07:01        5.80
  LS-33                STORAGE      1.47     2.48     3.70     0  00:00        2.12
  LS-34                STORAGE      2.51     3.57    -6.52     0  13:19        3.55
  LS-35                STORAGE      1.69     2.50    -0.50     0  16:20        2.50
  LS-38                STORAGE      1.89     2.48    -1.81     0  00:00        2.35
  LS-39                STORAGE      3.47     5.62     0.13     0  13:49        5.61
  LS-40                STORAGE      1.69     2.47    -2.66     0  00:00        2.12
  LS-41                STORAGE      2.24     4.35    -3.50     0  20:18        4.35
  LS-42                STORAGE      1.46     2.48    -7.55     0  00:00        2.29
  LS-43                STORAGE      0.00     0.00   -14.50     0  00:00        0.00
  LS-44                STORAGE      1.88     3.47     2.01     0  00:00        3.03
  LS-45                STORAGE      1.51     2.47    -3.85     0  00:00        1.86
  LS-46                STORAGE      1.15     2.48    -1.87     0  00:00        2.33
  LS-47                STORAGE      1.92     2.48   -13.07     0  00:00        2.36
  LS-49                STORAGE      2.14     2.84    -3.08     0  11:37        2.84
  LS-50                STORAGE      3.30     4.99     0.01     0  00:00        4.80
  LS-51                STORAGE      2.24     3.01    -3.88     0  12:52        3.00
  LS-53                STORAGE      2.12     3.02     4.89     0  15:12        3.00
  LS-54                STORAGE      1.69     2.47    -5.30     0  00:00        2.04
  LS-55                STORAGE      2.01     2.64    -4.53     0  11:24        2.64
  LS-56                STORAGE      1.28     1.98    -6.26     0  00:00        1.83
  LS-57                STORAGE      3.86     5.77     1.17     0  10:53        5.77
  LS-58                STORAGE      2.00     2.72    -6.20     0  15:16        2.71
  LS-59                STORAGE      0.72     1.49    -1.53     0  00:00        1.40
  LS-60                STORAGE      1.72     2.50    -6.50     0  13:58        2.50
  LS-61                STORAGE      1.94     2.48    -2.78     0  00:00        2.46
  LS-62                STORAGE      1.49     2.50    -0.67     0  00:00        2.42
  LS-63                STORAGE      2.06     2.71    -2.70     0  12:09        2.71
  LS-64                STORAGE      1.84     2.49    -4.69     0  00:00        2.36
  LS-65                STORAGE      3.11     4.95    -7.49     0  12:12        4.94
  LS-67                STORAGE      1.47     2.48     0.61     0  00:00        2.33
  LS-68                STORAGE      2.95     4.52     1.51     0  20:25        4.52
  LS-69                STORAGE      2.31     3.23    -5.77     0  10:11        3.23
  LS-70                STORAGE      2.83     4.29     0.86     0  11:00        4.29
  LS-71                STORAGE      1.85     2.48    -6.71     0  00:00        2.30
  LS-72                STORAGE      1.70     2.97     1.17     0  00:00        2.50
  LS-73                STORAGE      2.58     3.70    -4.52     0  22:42        3.70
  LS-74                STORAGE      2.27     3.07     1.48     0  13:09        3.07
  LS-75                STORAGE      2.53     3.66     0.04     0  13:54        3.66
  LS-76                STORAGE      1.80     3.98     1.97     0  00:00        3.60
  LS-77                STORAGE      2.38     3.36     0.10     0  00:14        3.36
  LS-78                STORAGE      3.91     6.55    -2.11     0  14:06        6.55
  LS-79                STORAGE      1.88     2.48    -4.15     0  00:00        2.35
  LS-81                STORAGE      1.97     2.48     0.26     0  00:00        2.46
  LS-82                STORAGE      1.30     7.97     8.31     0  00:00        7.50
  LS-83                STORAGE      1.96     7.98     5.14     0  00:00        7.64
  LS-84                STORAGE      4.02     7.99    -0.16     0  00:00        7.90
  LS-86                STORAGE      1.46     2.48     2.21     0  00:00        2.22
  LS-87                STORAGE      2.13     2.83    -3.08     0  14:00        2.83
  
  
  *******************
  Node Inflow Summary
  *******************
  
  -------------------------------------------------------------------------------------------------
                                  Maximum  Maximum                  Lateral       Total        Flow
                                  Lateral    Total  Time of Max      Inflow      Inflow     Balance
                                   Inflow   Inflow   Occurrence      Volume      Volume       Error
  Node                 Type           GPM      GPM  days hr:min    10^6 gal    10^6 gal     Percent
  -------------------------------------------------------------------------------------------------
  01-115               JUNCTION      5.13   179.30     0  12:17     0.00496       0.129       0.082
  01-124               JUNCTION      5.13   254.02     0  12:18     0.00496         0.2       0.132
  01-134               JUNCTION      5.13    77.63     0  13:26     0.00496      0.0619       0.126
  01-135               JUNCTION      5.13    77.02     0  13:20     0.00496      0.0573       0.710
  01-136               JUNCTION      5.13    75.46     0  13:16     0.00496      0.0526       0.404
  01-148               JUNCTION      5.13    72.43     0  13:10     0.00496       0.043       0.318
  01-151               JUNCTION      5.13    70.98     0  13:08     0.00496      0.0383       0.489
  01-152               JUNCTION      5.13    65.73     0  13:06     0.00496      0.0334       0.469
  01-183               JUNCTION      5.13    37.78     0  12:38     0.00496      0.0351       0.283
  01-187               JUNCTION      5.13    47.56     0  12:00     0.00496      0.0449       0.252
  01-188               JUNCTION      5.13    33.12     0  12:36     0.00496      0.0302       0.231
  01-192               JUNCTION      5.13    28.69     0  12:34     0.00496      0.0253       0.241
  01-196               JUNCTION      5.13    24.80     0  12:32     0.00496      0.0204       0.282
  01-20                JUNCTION      5.13   120.02     0  12:08     0.00496      0.0601       0.147
  01-204               JUNCTION      5.13    24.72     0  12:29     0.00496      0.0156       0.948
  01-206               JUNCTION      5.13    38.39     0  11:33     0.00496      0.0107       0.164
  01-21                JUNCTION      5.13   152.32     0  12:04     0.00496      0.0558       1.232
  01-212               JUNCTION      5.13     5.13     0  11:00     0.00496     0.00496       0.058
  01-226               JUNCTION      5.13    68.00     0  13:03     0.00496      0.0284      -0.255
  01-227               JUNCTION      5.13    67.86     0  13:01     0.00496      0.0236       0.511
  01-23                JUNCTION      5.13   202.32     0  12:01     0.00496      0.0488      -3.986
  01-231               JUNCTION      5.13    99.78     0  12:59     0.00496      0.0187       0.550
  01-232               JUNCTION      5.13   132.38     0  19:46     0.00496      0.0138       0.029
  01-233               JUNCTION      5.13   307.28     0  12:56     0.00496     0.00885       0.437
  01-24                JUNCTION      5.13  1886.07     0  12:34     0.00496      0.0524      19.401
  01-25                JUNCTION      3.18    38.16     0  11:55     0.00307      0.0354       0.544
  01-28                JUNCTION      3.18    34.98     0  12:00     0.00307      0.0324       0.478
  01-38                JUNCTION      3.18    31.80     0  12:00     0.00307      0.0294       0.113
  01-39                JUNCTION      3.18    28.62     0  12:00     0.00307      0.0273       3.739
  01-40                JUNCTION      3.18    25.44     0  12:00     0.00307      0.0243       0.267
  01-41                JUNCTION      3.18    22.26     0  12:00     0.00307      0.0214       0.640
  01-42                JUNCTION      3.18    19.08     0  12:00     0.00307      0.0184       0.261
  01-44                JUNCTION      3.18    17.68     0  23:49     0.00307      0.0153       0.404
  01-45                JUNCTION      3.18    25.85     0  23:47     0.00307      0.0123       0.368
  01-46                JUNCTION      3.18    35.34     0  23:46     0.00307     0.00619       0.127
  01-89                JUNCTION      5.13   123.24     0  12:09     0.00496       0.065       0.444
  01-90                JUNCTION      5.13   123.24     0  12:12     0.00496      0.0696       0.753
  01-91                JUNCTION      5.13   126.76     0  12:15     0.00496      0.0741      -0.196
  01-92                JUNCTION      5.13   174.32     0  12:17     0.00496       0.124       0.069
  01-A-40              JUNCTION      3.18   154.33     0  23:46     0.00307     0.00313       0.360
  01-A6                JUNCTION      3.18    23.44     0  23:47     0.00307     0.00926       0.105
  04-11                JUNCTION      4.90    95.23     0  00:41     0.00473      0.0248       0.608
  04-12                JUNCTION      4.90    69.65     0  11:08     0.00473      0.0294       0.482
  04-13                JUNCTION      4.90    58.97     0  12:01     0.00473      0.0339       0.327
  04-16                JUNCTION      4.90    58.22     0  11:16     0.00473      0.0524       0.060
  04-18                JUNCTION      4.90    63.03     0  11:17     0.00473      0.0571       0.027
  04-21                JUNCTION      4.90    54.98     0  11:14     0.00473      0.0478       0.246
  04-27                JUNCTION      4.90    53.20     0  11:12     0.00473      0.0432       0.242
  04-28                JUNCTION      4.90    52.76     0  12:02     0.00473      0.0386       0.214
  05-23                JUNCTION      8.94    82.77     0  11:21     0.00863      0.0641       0.049
  05-24                JUNCTION      8.94    73.83     0  11:21     0.00863      0.0555       0.036
  05-25                JUNCTION      8.94    66.99     0  11:19     0.00863      0.0469       0.151
  05-26                JUNCTION      8.94    75.01     0  11:17     0.00863      0.0385       0.444
  05-27                JUNCTION      8.94   104.46     0  11:15     0.00863        0.03       0.483
  05-29                JUNCTION      8.94   125.95     0  11:15     0.00863      0.0213      -0.132
  05-30                JUNCTION      8.94   117.85     0  11:14     0.00863      0.0127       0.235
  05-40                JUNCTION      8.94    91.54     0  11:21     0.00863      0.0727       0.041
  06-04                JUNCTION      0.00     0.00     0  00:00           0           0       0.000 gal
  06-09                JUNCTION      3.18    60.39     0  12:00     0.00307      0.0556       0.080
  06-11                JUNCTION      3.18    57.24     0  12:00     0.00307       0.053       0.866
  06-12                JUNCTION      3.18    54.06     0  12:00     0.00307        0.05       0.219
  06-21                JUNCTION      0.00     0.00     0  00:00           0           0       0.000 gal
  06-22                JUNCTION      0.00     0.00     0  00:00           0           0       0.000 gal
  06-25                JUNCTION      0.00     0.00     0  00:00           0           0       0.000 gal
  06-27                JUNCTION      0.00     0.00     0  00:00           0           0       0.000 gal
  06-28                JUNCTION      0.00     0.00     0  00:00           0           0       0.000 gal
  06-29                JUNCTION      0.00     0.00     0  00:00           0           0       0.000 gal
  06-30                JUNCTION      0.00     0.00     0  00:00           0           0       0.000 gal
  06-31                JUNCTION      0.00     0.00     0  00:00           0           0       0.000 gal
  06-52                JUNCTION      3.18    50.88     0  12:00     0.00307      0.0471       0.284
  06-53                JUNCTION      3.18    47.70     0  12:00     0.00307      0.0442       0.345
  06-54                JUNCTION      3.18    44.52     0  12:00     0.00307      0.0412       0.218
  06-55                JUNCTION      3.18    41.34     0  12:00     0.00307      0.0382       0.210
  06-56                JUNCTION      0.00    38.16     0  12:00           0      0.0352       0.175
  08-01                JUNCTION      4.46    53.55     0  11:40      0.0043      0.0472       0.041
  08-02                JUNCTION      4.46    49.36     0  11:39      0.0043       0.043       0.097
  08-09                JUNCTION      4.46    50.68     0  10:26      0.0043      0.0388       0.391
  08-13                JUNCTION      4.46    20.13     0  10:58      0.0043      0.0162       0.322
  08-14                JUNCTION      4.46    55.02     0  11:07      0.0043      0.0184       0.374
  08-19                JUNCTION      4.46    77.28     0  11:06      0.0043      0.0142       0.246
  09-01                JUNCTION     13.28   160.00     0  11:20      0.0128       0.146      -0.050
  09-02                JUNCTION     13.28   135.27     0  11:19      0.0128        0.12       0.105
  09-03                JUNCTION     13.28   137.74     0  11:18      0.0128       0.107      -0.001
  09-04                JUNCTION     13.28   139.06     0  11:17      0.0128      0.0946       0.125
  09-06                JUNCTION     13.28   330.71     0  11:12      0.0128      0.0917       0.405
  1000-1               JUNCTION      4.46    73.69     0  00:00      0.0043     0.00765       0.530
  1000-13              JUNCTION      1.67    61.08     0  11:29     0.00161      0.0251       0.290
  1000-14              JUNCTION      1.67    62.72     0  12:10     0.00161      0.0235       0.094
  1000-15              JUNCTION      1.67   135.46     0  09:19     0.00161       0.022       0.574
  1000-16              JUNCTION      1.67    35.70     0  11:32     0.00161      0.0282       0.099
  1000-17              JUNCTION      1.67    39.49     0  11:30     0.00161      0.0267       0.236
  1000-18              JUNCTION      0.00   232.93     0  17:04           0      0.0457       0.475
  1000-2               JUNCTION      4.46    18.74     0  10:56      0.0043      0.0119       0.142
  1000-20              JUNCTION      2.30   311.30     0  20:42     0.00222      0.0173       1.146
  1000-23              JUNCTION      2.30   487.93     0  10:41     0.00222       0.166       0.035
  1000-24              JUNCTION      5.13    73.33     0  13:13     0.00496      0.0478       0.457
  1000-28              JUNCTION      3.52    42.91     0  10:29      0.0034      0.0272       0.032
  1000-29              JUNCTION      4.90   284.20     0  00:00     0.00473      0.0624      -0.439
  1000-3               JUNCTION      2.30   433.97     0  08:01     0.00222      0.0148      -0.098
  1000-4               JUNCTION      3.52    46.31     0  10:29      0.0034      0.0306       0.024
  1000-5               JUNCTION      3.52    49.75     0  10:30      0.0034       0.034       0.154
  1000-6               JUNCTION      2.30    67.82     0  12:13     0.00222      0.0403       0.067
  1000-7               JUNCTION      2.30   312.88     0  12:36     0.00222      0.0306      -7.719
  1000-8               JUNCTION      5.13   184.18     0  12:18     0.00496       0.134       0.045
  1000-9               JUNCTION     13.28   147.06     0  11:19      0.0128       0.133       0.050
  13-01                JUNCTION      4.64   440.19     0  00:00     0.00448      0.0226      -0.146
  13-02                JUNCTION      4.64    18.57     0  12:00     0.00448      0.0179       0.251
  13-04                JUNCTION      4.64    13.93     0  12:00     0.00448      0.0134       0.247
  13-05                JUNCTION      4.64     9.29     0  11:51     0.00448     0.00896       0.356
  13-10                JUNCTION      4.64     4.64     0  11:00     0.00448     0.00448       0.188
  25-01                JUNCTION      1.07    58.06     0  10:30     0.00104      0.0295       0.065
  25-02                JUNCTION      1.07    13.77     0  10:59     0.00104      0.0101       0.108
  25-03                JUNCTION      1.07   169.26     0  02:41     0.00104     0.00921       1.978
  25-06                JUNCTION      1.07    46.78     0  11:22     0.00104      0.0184       0.146
  25-07                JUNCTION      1.07    45.66     0  11:22     0.00104      0.0174      -0.058
  25-08                JUNCTION      1.07    48.71     0  11:21     0.00104      0.0164       0.109
  25-09                JUNCTION      1.07    50.96     0  11:20     0.00104      0.0154       0.100
  25-10                JUNCTION      1.07    51.20     0  11:19     0.00104      0.0143       0.078
  25-11                JUNCTION      1.07    51.01     0  11:19     0.00104      0.0133       0.096
  25-12                JUNCTION      1.07    50.10     0  11:19     0.00104      0.0123       0.103
  25-13                JUNCTION      1.07    49.42     0  09:23     0.00104      0.0113       0.141
  27-34                JUNCTION      4.96    29.74     0  12:00     0.00479      0.0285       0.258
  27-35                JUNCTION      4.96    24.79     0  12:00     0.00479      0.0238       0.283
  27-36                JUNCTION      4.96    19.83     0  12:00     0.00479       0.019       0.243
  27-37                JUNCTION      4.96    14.87     0  12:00     0.00479      0.0143       0.371
  27-47                JUNCTION      4.96     9.91     0  12:00     0.00479     0.00955       0.455
  27-A28               JUNCTION      4.96     4.96     0  11:00     0.00479     0.00479       0.552
  29-01A               JUNCTION      2.60    10.40     0  12:00     0.00251        0.01       0.034
  29-03                JUNCTION      2.60     7.80     0  11:56     0.00251     0.00752       0.433
  29-08                JUNCTION      2.60     2.60     0  11:00     0.00251     0.00251       0.309
  29-09                JUNCTION      2.60     5.20     0  11:59     0.00251     0.00501       0.113
  34-01                JUNCTION      2.30   316.37     0  12:35     0.00222      0.0216       1.055
  34-17                JUNCTION      2.30    61.87     0  12:18     0.00222      0.0467       0.187
  34-20                JUNCTION      2.30    59.56     0  12:17     0.00222      0.0445       0.045
  34-21                JUNCTION      2.30    65.78     0  12:14     0.00222      0.0425       0.419
  34-23                JUNCTION      2.30    71.96     0  12:11     0.00222      0.0382       0.361
  34-26                JUNCTION      2.30    94.24     0  12:09     0.00222      0.0359      -0.101
  34-28                JUNCTION      2.30   411.74     0  11:33     0.00222      0.0339       0.674
  34-29                JUNCTION      2.30     4.61     0  11:57     0.00222     0.00444       0.233
  39-01                JUNCTION      2.80   101.66     0  11:37      0.0027       0.073       0.032
  39-02                JUNCTION      2.80    98.89     0  11:37      0.0027      0.0703       0.038
  39-03                JUNCTION      2.80    33.11     0  12:41      0.0027      0.0283       0.224
  39-04                JUNCTION      2.80    32.06     0  12:38      0.0027      0.0256       0.237
  39-05                JUNCTION      2.80    32.78     0  12:36      0.0027       0.023       0.231
  39-06                JUNCTION      2.80    37.48     0  12:33      0.0027      0.0203       0.218
  39-07                JUNCTION      2.80    79.51     0  11:26      0.0027      0.0177       0.528
  39-08                JUNCTION      2.80   338.48     0  00:00      0.0027      0.0154       2.596
  39-09                JUNCTION      2.80    66.93     0  11:34      0.0027      0.0396       0.386
  39-10                JUNCTION      2.80    77.37     0  11:30      0.0027      0.0372       0.984
  39-11                JUNCTION      2.80    80.56     0  11:28      0.0027      0.0347       0.385
  39-12                JUNCTION      2.80    78.66     0  11:27      0.0027       0.032       0.049
  39-14                JUNCTION      2.80    80.89     0  11:25      0.0027      0.0294       0.242
  39-26                JUNCTION      2.80    92.37     0  11:24      0.0027      0.0268       0.460
  39-27                JUNCTION      2.80    88.96     0  11:23      0.0027      0.0241      -0.067
  39-28                JUNCTION      2.80   122.11     0  11:22      0.0027      0.0214       0.368
  39-29                JUNCTION      2.80   126.62     0  11:21      0.0027      0.0188       0.125
  39-31                JUNCTION      2.80   162.32     0  01:59      0.0027      0.0161       0.485
  44-A34               JUNCTION      2.30     2.30     0  11:00     0.00222     0.00222       0.233
  57-01                JUNCTION      0.00   949.30     0  20:35           0       0.211       0.920
  57-01A               JUNCTION      0.00   727.60     0  20:36           0       0.209       0.836
  57-02                JUNCTION      0.00  1255.48     0  20:34           0       0.211      -0.273
  65-01                JUNCTION      1.90    58.96     0  11:43     0.00183       0.041       0.038
  65-28                JUNCTION      1.90    62.02     0  11:41     0.00183      0.0393       0.378
  65-29                JUNCTION      1.90    59.99     0  11:41     0.00183      0.0375       0.037
  65-30                JUNCTION      1.90    72.00     0  11:38     0.00183      0.0359       0.444
  65-31                JUNCTION      1.90    77.48     0  11:37     0.00183      0.0341       0.174
  65-32                JUNCTION      1.90   150.59     0  11:35     0.00183      0.0324       0.412
  65-33                JUNCTION      1.90   192.18     0  11:35     0.00183      0.0306       0.262
  65-34                JUNCTION      1.90   426.46     0  07:16     0.00183      0.0292       1.446
  68-01                JUNCTION      3.52    51.01     0  11:41      0.0034      0.0373       0.026
  68-A                 JUNCTION      3.52    44.23     0  10:27      0.0034      0.0238       0.172
  68-B                 JUNCTION      3.52   117.77     0  02:40      0.0034      0.0147       1.149
  68-C                 JUNCTION      3.52    64.43     0  10:24      0.0034      0.0171       0.182
  68-D                 JUNCTION      3.52    49.26     0  10:25      0.0034      0.0204       0.159
  69-01                JUNCTION      1.67    36.68     0  11:33     0.00161      0.0298       0.039
  77-01                JUNCTION     11.41   136.94     0  14:55       0.011      0.0127       0.068
  FM-0B                JUNCTION      0.00    68.02     0  00:41           0      0.0206       1.441
  J-1                  JUNCTION      0.00  1013.58     0  00:00           0     0.00385       2.413
  J-100                JUNCTION      0.00   788.98     0  01:11           0      0.0738       2.620
  J-101                JUNCTION      0.00   277.72     0  00:00           0      0.0214       0.629
  J-103                JUNCTION      0.00   584.08     0  00:00           0      0.0102       2.136
  J-104                JUNCTION      0.00   539.08     0  01:22           0       0.143       1.491
  J-105                JUNCTION      0.00    54.17     0  19:15           0      0.0101      -1.493
  J-106                JUNCTION      0.00   545.41     0  02:21           0      0.0347       7.093
  J-108                JUNCTION      0.00   970.27     0  00:00           0      0.0306       4.818
  J-110                JUNCTION      0.00   726.51     0  00:00           0      0.0319       3.475
  J-111                JUNCTION      0.00   545.46     0  13:07           0       0.181       3.457
  J-112                JUNCTION      0.00  1066.08     0  00:00           0      0.0463      -3.766
  J-113                JUNCTION      0.00   921.47     0  00:00           0    0.000165     165.368 gal
  J-114                JUNCTION      0.00   673.73     0  00:00           0     0.00401      -1.894
  J-115                JUNCTION      0.00   621.24     0  02:53           0      0.0523       4.399
  J-116                JUNCTION      0.00   653.42     0  04:10           0      0.0244      -1.969
  J-117                JUNCTION      0.00  1253.73     0  15:45           0       0.363      -0.256
  J-118                JUNCTION      0.00   984.00     0  00:00           0      0.0562       0.403
  J-119                JUNCTION      0.00   984.38     0  15:45           0       0.399      -0.107
  J-12                 JUNCTION      0.00   855.60     0  00:00           0      0.0126      -0.528
  J-120                JUNCTION      0.00   611.59     0  01:36           0      0.0254       6.642
  J-121                JUNCTION      0.00  2529.49     0  00:00           0       0.196      -0.388
  J-123                JUNCTION      0.00   154.71     0  03:22           0     0.00732     108.057
  J-124                JUNCTION      0.00   965.51     0  00:00           0      0.0138       2.778
  J-125                JUNCTION      0.00  2673.21     0  13:59           0       0.949       6.837
  J-126                JUNCTION      0.00   243.54     0  00:00           0     0.00437      10.274
  J-127                JUNCTION      0.00   190.75     0  00:00           0     0.00591       0.644
  J-128                JUNCTION      0.00   543.23     0  01:43           0      0.0185       4.882
  J-129                JUNCTION      0.00  1199.11     0  00:00           0      0.0465       4.836
  J-131                JUNCTION      0.00  2057.91     0  04:08           0       0.391       4.124
  J-132                JUNCTION      0.00   564.00     0  00:00           0     0.00965       5.529
  J-133                JUNCTION      0.00   669.34     0  11:38           0        0.16       3.401
  J-134                JUNCTION      0.00   737.53     0  08:59           0      0.0599       2.980
  J-135                JUNCTION      0.00  1416.02     0  00:00           0       0.016       1.560
  J-136                JUNCTION      0.00   895.78     0  02:19           0      0.0305      21.854
  J-137                JUNCTION      0.00  3573.81     0  21:04           0        1.34       3.317
  J-138                JUNCTION      0.00  1608.49     0  15:50           0       0.432       2.952
  J-139                JUNCTION      0.00  3649.01     0  10:43           0        1.33       1.192
  J-14                 JUNCTION      0.00  1646.00     0  21:15           0      0.0912      16.881
  J-140                JUNCTION      0.00  3598.99     0  21:04           0        1.28       1.926
  J-142                JUNCTION      0.00   830.96     0  03:10           0       0.207       0.833
  J-143                JUNCTION      0.00   826.44     0  03:10           0       0.281       2.086
  J-144                JUNCTION      0.00   965.84     0  18:41           0       0.317       1.437
  J-145                JUNCTION      0.00   240.31     0  00:00           0     0.00475       2.369
  J-146                JUNCTION      0.00  1730.53     0  07:31           0       0.398       1.945
  J-147                JUNCTION      0.00  3681.91     0  10:43           0        1.65       2.640
  J-148                JUNCTION      0.00  1106.47     0  00:00           0      0.0219       4.926
  J-149                JUNCTION      0.00   819.58     0  04:00           0       0.024       8.594
  J-150                JUNCTION      0.00  5250.59     0  10:43           0        2.43       2.690
  J-151                JUNCTION      0.00  5255.15     0  10:43           0        2.02       0.208
  J-152                JUNCTION   1324.44  1944.00     0  13:29        1.28        1.33       2.310
  J-153                JUNCTION      0.00   679.13     0  06:46           0     0.00635       6.499
  J-154                JUNCTION      0.00   341.56     0  05:36           0      0.0607       3.571
  J-155                JUNCTION      0.00   187.06     0  00:00           0      0.0086       5.948
[...]
  FM-63                      17.59     17.59     17.59      3.82         6.73
  FM-64                      15.54     15.54     16.65      1.69         1.73
  FM-77                       9.77     11.48     11.49     17.31         6.26
  FM-78                      11.36     11.46     18.85      0.29         0.15
  FM-80                       0.01      0.01      3.42      0.01         0.01
  FM-82                       0.01      0.04      0.01     17.74         0.01
  FM-85                       0.01      0.01     17.29      2.47         0.01
  FM-9                       20.96     20.97     22.26      4.55         0.77
  FM-95                      12.48     12.55     12.85      6.60         5.61
  G-1177                      0.01      0.01      0.01      0.01         0.01
  G-1266                      0.01      0.01      0.06      0.01         0.01
  G-1579                      0.01      0.01      3.12      0.01         0.01
  G-3003                      0.01      0.01      0.56      0.01         0.01
  G-3004                      0.56      0.56     15.53      0.01         0.01
  
  
  ***************
  Pumping Summary
  ***************
  
  ---------------------------------------------------------------------------------------------------------
                                                  Min       Avg       Max     Total     Power    % Time Off
                        Percent   Number of      Flow      Flow      Flow    Volume     Usage    Pump Curve
  Pump                 Utilized   Start-Ups       GPM       GPM       GPM  10^6 gal     Kw-hr    Low   High
  ---------------------------------------------------------------------------------------------------------
  LS-00_PMP-1              0.43           3      0.00    116.00    487.46     0.001      0.06    0.0    0.6
  LS-00_PMP-2              0.04           1      0.00    142.64    487.46     0.000      0.01    0.0    5.9
  LS-01_PMP-1             10.57          48      0.00   1370.79   1946.06     0.204     31.81    0.0   25.1
  LS-01_PMP-2              0.13           1      0.00   1915.54   1946.06     0.004      0.22    0.0   97.2
  LS-02_PMP-1              0.50          10      0.00    582.57    649.56     0.004      0.47    0.0    2.9
  LS-02_PMP-2              0.00           0      0.00      0.00      0.00     0.000      0.00    0.0    0.0
  LS-03_PMP-1              2.01          36      0.00    533.38    710.00     0.015      1.27    0.0    4.3
  LS-03_PMP-2              0.02           1      0.00    710.00    710.00     0.000      0.00    0.0  100.0
  LS-04_PMP-1              6.05          42      0.00    717.27    845.48     0.062      5.99    0.0   13.8
  LS-04_PMP-2              0.04           1      0.00    833.93    845.48     0.001      0.01    0.0   94.8
  LS-05_PMP-1             11.07          45      0.00    452.50    764.89     0.071     25.72    0.0    3.2
  LS-05_PMP-2              0.00           0      0.00      0.00      0.00     0.000      0.00    0.0    0.0
  LS-06_PMP-1              3.44          53      0.00   1136.57   1408.70     0.056      6.07    0.0    9.7
  LS-06_PMP-2              0.01           1      0.00   1408.70   1408.70     0.000      0.00    0.0  100.0
  LS-07_PMP-1             28.08         318      0.00   1228.32   2170.87     0.497    114.15    0.0  100.0
  LS-07_PMP-2              0.00           0      0.00      0.00      0.00     0.000      0.00    0.0    0.0
  LS-07_PMP-3              0.00           0      0.00      0.00      0.00     0.000      0.00    0.0    0.0
  LS-08_PMP-1              8.27          35      0.00    391.17    572.73     0.046      5.90    0.0   14.1
  LS-08_PMP-2              0.00           0      0.00      0.00      0.00     0.000      0.00    0.0    0.0
  LS-09_PMP-1             27.30         115      0.00    368.04    826.16     0.144     30.79    0.0    0.1
  LS-09_PMP-2              0.02           1      0.00    715.66    826.16     0.000      0.03    0.0   31.1
  LS-1002_PMP-1            2.41          72      0.00    102.20    845.48     0.004      0.85    0.0    0.1
  LS-1002_PMP-2            0.01           1      0.00    247.67    845.48     0.000      0.01    0.0    8.2
  LS-1004_PMP-1            0.40          11      0.00    497.87    677.28     0.003      0.45    0.0    0.0
  LS-1004_PMP-2            0.00           0      0.00      0.00      0.00     0.000      0.00    0.0    0.0
  LS-10_PMP-1              0.00           0      0.00      0.00      0.00     0.000      0.00    0.0    0.0
  LS-10_PMP-2              0.00           0      0.00      0.00      0.00     0.000      0.00    0.0    0.0
  LS-11_PMP-1              1.78          16      0.00    282.03    725.14     0.007      0.95    0.0    0.2
  LS-11_PMP-2              0.07           1      0.00    396.14    725.14     0.000      0.04    0.0    4.9
  LS-12_PMP-1              6.36          58      0.00    309.92    645.98     0.028      3.05    0.0    0.1
  LS-12_PMP-2              0.03           1      0.00    447.75    645.98     0.000      0.01    0.0   17.6
  LS-13_PMP-1              5.64          53      0.00    287.52    517.15     0.023      2.80    0.0    1.6
  LS-13_PMP-2              0.20           1      0.00    368.92    517.15     0.001      0.08    0.0   18.7
  LS-14_PMP-1             17.18          62      0.00    101.98    495.21     0.025      2.95    0.0    0.0
  LS-14_PMP-2              0.06           1      0.00    181.20    495.21     0.000      0.02    0.0    3.8
  LS-15_PMP-1              0.05           1      0.00    540.36    572.79     0.000      0.03    0.0   19.6
  LS-15_PMP-2              0.05           1      0.00    540.36    572.79     0.000      0.03    0.0   19.6
  LS-16_PMP-1              0.04           1      0.00    541.10    761.14     0.000      0.03    0.0    7.5
  LS-16_PMP-2              0.04           1      0.00    541.10    761.14     0.000      0.03    0.0    7.5
  LS-17_PMP-1              2.75          71      0.00    520.45    577.21     0.020      1.86    0.0   14.6
  LS-17_PMP-2              0.01           1      0.00    529.42    577.21     0.000      0.00    0.0   71.2
  LS-18_PMP-1              3.42         140      0.00    424.87    572.86     0.021      2.49    0.0    6.7
  LS-18_PMP-2              0.01           1      0.00    460.98    572.86     0.000      0.01    0.0   35.6
  LS-19_PMP-1              1.70          25      0.00    569.25    611.44     0.014      1.15    0.0   40.3
  LS-19_PMP-2              0.00           0      0.00      0.00      0.00     0.000      0.00    0.0    0.0
  LS-20_PMP-1              1.93         188      0.00    400.50    599.23     0.011      1.66    0.0    1.6
  LS-20_PMP-2              0.00           0      0.00      0.00      0.00     0.000      0.00    0.0    0.0
  LS-21_PMP-1              5.19          46      0.00    229.41    529.18     0.017      1.87    0.0    1.4
  LS-21_PMP-2              0.00           0      0.00      0.00      0.00     0.000      0.00    0.0    0.0
  LS-22_PMP-1              1.32          63      0.00    629.62    631.79     0.012      0.72    0.0   98.8
  LS-22_PMP-2              0.00           0      0.00      0.00      0.00     0.000      0.00    0.0    0.0
  LS-23_PMP-1              0.99          57      0.00    399.02    760.85     0.006      0.77    0.0    0.5
  LS-23_PMP-2              0.00           0      0.00      0.00      0.00     0.000      0.00    0.0    0.0
  LS-24_PMP-1             14.96         411      0.00    314.08    517.74     0.068      7.89    0.0    0.4
  LS-24_PMP-2              0.01           1      0.00    428.19    517.74     0.000      0.00    0.0   38.6
  LS-25_PMP-1              5.65          91      0.00    357.53    576.62     0.029      4.19    0.0    0.2
  LS-25_PMP-2              0.01           1      0.00    570.56    576.62     0.000      0.00    0.0   87.3
  LS-26_PMP-1              1.41          10      0.00    284.35    526.08     0.006      0.58    0.0    8.0
  LS-26_PMP-2              0.00           1      0.00    526.08    526.08     0.000      0.00    0.0  100.0
  LS-27_PMP-1              6.15          84      0.00    321.73    763.41     0.028      4.37    0.0    0.1
  LS-27_PMP-2              0.02           1      0.00    503.11    763.41     0.000      0.01    0.0   22.2
  LS-28_PMP-1              0.02           1      0.00    492.27    733.58     0.000      0.01    0.0   22.2
  LS-28_PMP-2              0.02           1      0.00    492.27    733.58     0.000      0.01    0.0   22.2
  LS-29_PMP-1              1.96          10      0.00    322.06    762.37     0.009      1.39    0.0    0.2
  LS-29_PMP-2              0.00           0      0.00      0.00      0.00     0.000      0.00    0.0    0.0
  LS-30_PMP-1              6.52          60      0.00    354.23    514.81     0.033      3.47    0.0    5.3
  LS-30_PMP-2              0.00           0      0.00      0.00      0.00     0.000      0.00    0.0    0.0
  LS-31_PMP-1              0.40          12      0.00    672.48    685.47     0.004      0.47    0.0   75.7
  LS-31_PMP-2              0.00           0      0.00      0.00      0.00     0.000      0.00    0.0    0.0
  LS-32_PMP-1             23.39         104      0.00   1094.91   1883.04     0.369    137.19    0.0   23.0
  LS-32_PMP-2              0.00           0      0.00      0.00      0.00     0.000      0.00    0.0    0.0
  LS-33_PMP-1              0.02           1      0.00    291.76    355.49     0.000      0.00    0.0   34.6
  LS-33_PMP-2              0.02           1      0.00    291.76    355.49     0.000      0.00    0.0   34.6
  LS-34_PMP-1             17.26         168      0.00    751.82   1795.72     0.187     45.07    0.0    0.1
  LS-34_PMP-2              0.01           1      0.00   1716.84   2409.89     0.000      0.03    0.0   34.4
  LS-35_PMP-1              7.17          22      0.00    132.17    183.42     0.014      1.81    0.0    0.0
  LS-35_PMP-2              0.00           0      0.00      0.00      0.00     0.000      0.00    0.0    0.0
  LS-38_PMP-1              3.80          62      0.00    233.09    432.54     0.013      0.97    0.0    0.2
  LS-38_PMP-2              0.02           1      0.00    314.48    432.54     0.000      0.00    0.0   26.2
  LS-39_PMP-1              9.10          53      0.00    725.36   1440.10     0.093     11.95    0.0    3.9
  LS-39_PMP-2              0.01           1      0.00   1440.10   1440.10     0.000      0.00    0.0  100.0
  LS-40_PMP-1              0.46          17      0.00    156.31    337.68     0.001      0.17    0.0    0.6
  LS-40_PMP-2              0.02           1      0.00    170.19    337.68     0.000      0.01    0.0   13.7
  LS-41_PMP-1              0.10           2      0.00    521.90    527.21     0.001      0.03    0.0   93.9
  LS-41_PMP-2              0.00           0      0.00      0.00      0.00     0.000      0.00    0.0    0.0
  LS-42_PMP-1              0.06           2      0.00    120.04    397.80     0.000      0.01    0.0    6.0
  LS-42_PMP-2              0.06           2      0.00    120.04    397.80     0.000      0.01    0.0    6.0
  LS-43_PMP-1              0.00           0      0.00      0.00      0.00     0.000      0.00    0.0    0.0
  LS-43_PMP-2              0.00           0      0.00      0.00      0.00     0.000      0.00    0.0    0.0
  LS-44_PMP-1              2.19          83      0.00    215.00    247.85     0.007      0.58    0.0    0.6
  LS-44_PMP-2              0.03           1      0.00    229.74    337.05     0.000      0.01    0.0   23.2
  LS-45_PMP-1              1.20         117      0.00    810.16    861.15     0.014      1.11    0.0   33.9
  LS-45_PMP-2              0.01           1      0.00    861.15    861.15     0.000      0.00    0.0  100.0
  LS-46_PMP-1              6.38         101      0.00     92.21    463.03     0.008      0.74    0.0    0.0
  LS-46_PMP-2              0.09           1      0.00    136.62    463.03     0.000      0.01    0.0    2.7
  LS-47_PMP-1             21.71          86      0.00     65.07    432.56     0.020      1.99    0.0    0.0
  LS-47_PMP-2              0.09           2      0.00     98.80    432.56     0.000      0.01    0.0    2.8
  LS-49_PMP-1              8.49          31      0.00     78.53    367.84     0.009      0.55    0.0    0.5
  LS-49_PMP-2              0.03           1      0.00    265.99    367.84     0.000      0.00    0.0   22.1
  LS-50_PMP-1              2.99          25      0.00    313.66    480.03     0.013      1.10    0.0    1.5
  LS-50_PMP-2              0.07           1      0.00    443.99    480.03     0.000      0.02    0.0   65.9
  LS-51_PMP-1             16.42          61      0.00    101.92    405.86     0.024      2.15    0.0    0.0
  LS-51_PMP-2              0.03           1      0.00    230.36    405.86     0.000      0.01    0.0   10.6
  LS-53_PMP-1              5.35         126      0.00    625.72   1024.76     0.049      8.87    0.0    0.0
  LS-53_PMP-2              0.01           1      0.00    561.54   1024.76     0.000      0.01    0.0   16.7
  LS-54_PMP-1              2.76         104      0.00    360.58    687.70     0.014      3.08    0.0    0.2
  LS-54_PMP-2              0.01           1      0.00    552.60    687.70     0.000      0.01    0.0   29.7
  LS-55_PMP-1              1.79          31      0.00    572.30    687.68     0.015      1.98    0.0   19.5
  LS-55_PMP-2              0.02           1      0.00    687.68    687.68     0.000      0.00    0.0  100.0
  LS-56_PMP-1              6.72          72      0.00    104.98    460.40     0.010      1.10    0.0    0.0
  LS-56_PMP-2              0.05           1      0.00    144.65    460.40     0.000      0.01    0.0    4.3
  LS-57_PMP-1             15.56          71      0.00   1045.78   1899.78     0.234     41.41    0.0  100.0
  LS-57_PMP-2              0.00           0      0.00      0.00      0.00     0.000      0.00    0.0    0.0
  LS-57_PMP-3              0.00           0      0.00      0.00      0.00     0.000      0.00    0.0    0.0
  LS-58_PMP-1              1.56          37      0.00    502.84    685.00     0.011      1.85    0.0    4.5
  LS-58_PMP-2              0.01           1      0.00    685.00    685.00     0.000      0.00    0.0  100.0
  LS-59_PMP-1              3.62          61      0.00     58.43     60.00     0.003      0.31    0.0   61.5
  LS-59_PMP-2              0.06           1      0.00     57.83     60.00     0.000      0.00    0.0   72.0
  LS-60_PMP-1             14.33          38      0.00     48.93     55.31     0.010      1.09    0.0    0.1
  LS-60_PMP-2              0.00           0      0.00      0.00      0.00     0.000      0.00    0.0    0.0
  LS-61_PMP-1              9.82         170      0.00    282.77    527.83     0.041      8.01    0.0    9.2
  LS-61_PMP-2              0.02           1      0.00    502.57    527.83     0.000      0.01    0.0   73.9
  LS-62_PMP-1              4.09          13      0.00     50.24    102.11     0.003      0.83    0.0    0.2
  LS-62_PMP-2              0.23           1      0.00     45.56    102.11     0.000      0.03    0.0    3.2
  LS-63_PMP-1              8.92         107      0.00    252.59    847.81     0.032      7.19    0.0    0.0
  LS-63_PMP-2              0.01           1      0.00    586.49    847.81     0.000      0.01    0.0   25.6
  LS-64_PMP-1              0.30           5      0.00     81.41     82.31     0.000      0.02    0.0   65.1
  LS-64_PMP-2              0.04           1      0.00     81.97     82.31     0.000      0.00    0.0   96.2
  LS-65_PMP-1              7.93          50      0.00    360.33    731.59     0.041     13.00    0.0    0.7
  LS-65_PMP-2              0.01           1      0.00    606.97    731.59     0.000      0.02    0.0   33.2
  LS-67_PMP-1              0.07           1      0.00    117.76    432.60     0.000      0.01    0.0    3.2
  LS-67_PMP-2              0.07           1      0.00    117.76    432.60     0.000      0.01    0.0    3.2
  LS-68_PMP-1             12.71          49      0.00    206.00    550.67     0.037      4.46    0.0    1.4
  LS-68_PMP-2              0.02           1      0.00    408.43    550.67     0.000      0.01    0.0   27.6
  LS-69_PMP-1              8.50          71      0.00    243.57    535.23     0.030      3.32    0.0    1.1
  LS-69_PMP-2              0.02           1      0.00    379.23    535.23     0.000      0.01    0.0   25.7
  LS-70_PMP-1              2.35          13      0.00    234.93    431.90     0.008      0.59    0.0    0.4
  LS-70_PMP-2              0.02           1      0.00    373.72    431.90     0.000      0.00    0.0   46.9
  LS-71_PMP-1             20.35         106      0.00     71.81    473.07     0.021      2.37    0.0    0.0
  LS-71_PMP-2              0.07           1      0.00    126.40    473.07     0.000      0.01    0.0    4.5
  LS-72_PMP-1              1.80          25      0.00    151.75    336.89     0.004      0.64    0.0    0.7
  LS-72_PMP-2              0.02           1      0.00    311.30    336.89     0.000      0.01    0.0   33.2
  LS-73_PMP-1              4.95          10      0.00     69.08    120.14     0.005      1.53    0.0   21.5
  LS-73_PMP-2              0.06           1      0.00    118.18    120.14     0.000      0.02    0.0   72.3
  LS-74_PMP-1              5.44          17      0.00     76.39     93.52     0.006      0.63    0.0    4.5
  LS-74_PMP-2              0.08           1      0.00     93.09     93.52     0.000      0.00    0.0   97.2
  LS-75_PMP-1              0.92           8      0.00    190.13    547.86     0.002      0.30    0.0    0.3
  LS-75_PMP-2              0.02           1      0.00    281.04    547.86     0.000      0.01    0.0   15.3
  LS-76_PMP-1              7.31          48      0.00    223.23    623.07     0.023      2.25    0.0    0.1
  LS-76_PMP-2              0.05           1      0.00    457.31    623.07     0.000      0.02    0.0    8.4
  LS-77_PMP-1              8.45          27      0.00    104.83    436.68     0.013      1.61    0.0    0.0
  LS-77_PMP-2              0.05           1      0.00    156.96    436.68     0.000      0.01    0.0    4.9
  LS-78_PMP-1              2.58           6      0.00    162.41    576.01     0.006      1.13    0.0    0.2
  LS-78_PMP-2              0.02           1      0.00    427.42    576.01     0.000      0.01    0.0   28.7
  LS-79_PMP-1              0.30           5      0.00    254.89    494.58     0.001      0.09    0.0    2.1
  LS-79_PMP-2              0.02           1      0.00    411.97    494.58     0.000      0.01    0.0   33.3
  LS-81_PMP-1              9.57          44      0.00     73.90    389.92     0.010      0.70    0.0    0.0
  LS-81_PMP-2              0.11           1      0.00     95.49    389.92     0.000      0.01    0.0    2.8
  LS-82_PMP-1              0.48          10      0.00    382.60    704.05     0.003      1.02    0.0   25.3
  LS-82_PMP-2              0.24           1      0.00    256.75    704.05     0.001      0.35    0.0    4.8
  LS-83_PMP-1              5.85         122      0.00    377.82    491.57     0.031      3.12    0.0    5.9
  LS-83_PMP-2              0.11           1      0.00    475.90    491.57     0.001      0.04    0.0   41.2
  LS-84_PMP-1              2.20           3      0.00     69.11    499.30     0.002      0.24    0.0    0.1
  LS-84_PMP-2              1.25           2      0.00     65.46    499.30     0.001      0.11    0.0    0.2
  LS-86_PMP-1              0.02           1      0.00    384.47    568.63     0.000      0.01    0.0   14.2
  LS-86_PMP-2              0.02           1      0.00    384.47    568.63     0.000      0.01    0.0   14.2
  LS-87_PMP-1              1.31          13      0.00    210.12    762.72     0.004      0.67    0.0    0.2
  LS-87_PMP-2              0.02           1      0.00    437.92    762.72     0.000      0.01    0.0   13.3
  

  Analysis begun on:  Fri Nov 29 15:02:27 2019
  Analysis ended on:  Fri Nov 29 15:02:46 2019
  Total elapsed time: 00:00:19