
  EPA STORM WATER MANAGEMENT MODEL - VERSION 5.1 (Build 5.1.013)
  --------------------------------------------------------------

   Northeast Industrial District Phase 3 Watershed Study 
  
  WARNING 04: minimum elevation drop used for Conduit HAL2-1(06)
  WARNING 04: minimum elevation drop used for Conduit HAMC(02)
  WARNING 04: minimum elevation drop used for Conduit HAMC(06)
  WARNING 04: minimum elevation drop used for Conduit HAL2-1(01)
  WARNING 04: minimum elevation drop used for Conduit UAL1(03)
  WARNING 04: minimum elevation drop used for Conduit UAL6-4(01)
  WARNING 04: minimum elevation drop used for Conduit UAL6-3(01)
  WARNING 04: minimum elevation drop used for Conduit UAL6-1(01)
  WARNING 04: minimum elevation drop used for Conduit UAL6(03)
  WARNING 04: minimum elevation drop used for Conduit UAL6(04)
  WARNING 04: minimum elevation drop used for Conduit UAL3(01)
  WARNING 04: minimum elevation drop used for Conduit L112
  WARNING 04: minimum elevation drop used for Conduit HPMC(06a)
  WARNING 04: minimum elevation drop used for Conduit HPMC(07)
  WARNING 04: minimum elevation drop used for Conduit 1838.1
  WARNING 02: maximum depth increased for Node S012451
  WARNING 02: maximum depth increased for Node S005418
  WARNING 02: maximum depth increased for Node S005419
  WARNING 02: maximum depth increased for Node S005445
  WARNING 02: maximum depth increased for Node S024498
  WARNING 02: maximum depth increased for Node S024481
  
  *************
  Element Count
  *************
  Number of rain gages ...... 1
  Number of subcatchments ... 185
  Number of nodes ........... 434
  Number of links ........... 516
  Number of pollutants ...... 0
  Number of land uses ....... 0
  
  
  ****************
  Raingage Summary
  ****************
                                                      Data       Recording
  Name                 Data Source                    Type       Interval 
  ------------------------------------------------------------------------
  SCS~Type~II          RN#1                           CUMULATIVE  29 min.
  
  
  ********************
  Subcatchment Summary
  ********************
  Name                       Area     Width   %Imperv    %Slope Rain Gage            Outlet              
  -----------------------------------------------------------------------------------------------------------
  S011400#1                143.95    908.00      0.00   30.0000 SCS~Type~II          S011400             
  S011402#1                 23.03    848.00      0.00   30.0000 SCS~Type~II          S011402             
  S011403#1                 36.29   1020.00      0.00  340.0000 SCS~Type~II          S011403             
  S011407#1                245.79   1957.00      0.00    0.1600 SCS~Type~II          S011407             
  S011411#1                 14.78    608.00      0.00   80.0000 SCS~Type~II          S011411             
  S011413#1                  2.07    177.00      0.00   30.0000 SCS~Type~II          S011413             
  S011414#1                  0.63    139.00      0.00  330.0000 SCS~Type~II          S011414             
  S011417#1                  7.80    167.00      0.00   30.0000 SCS~Type~II          S011417             
  S011423#1                 22.17    598.00      0.00  130.0000 SCS~Type~II          S011423             
  S011430#1                  7.10    292.00      0.00   80.0000 SCS~Type~II          S011430             
  S011433#1                  1.89    206.00      0.00   50.0000 SCS~Type~II          S011433             
  S011435#1                  4.18    157.00      0.00   40.0000 SCS~Type~II          S011435             
  S012036#1                 12.95    740.00      0.00   40.0000 SCS~Type~II          S012036             
  S012043#1                 11.17    677.00      0.00   30.0000 SCS~Type~II          S012043             
  S012400#1                 30.64   3331.00      0.00  210.0000 SCS~Type~II          S012400             
  S012401#1                 41.59    639.00      0.00   90.0000 SCS~Type~II          S012401             
  S012402#1                 27.74    494.00      0.00   80.0000 SCS~Type~II          S012402             
  S012403#1                 33.74    872.00      0.00   30.0000 SCS~Type~II          S012403             
  S012404#1                 15.56   1632.00      0.00   50.0000 SCS~Type~II          S012404             
  S012405#1                 22.41    791.00      0.00  190.0000 SCS~Type~II          S012405             
  S012406#1                  5.19    267.00      0.00   30.0000 SCS~Type~II          S012406             
  S012409#1                116.77    999.00      0.00   30.0000 SCS~Type~II          S012409             
  S012412#1                  3.87    563.00      0.00  100.0000 SCS~Type~II          S012412             
  S012415#1                 14.30    296.00      0.00   30.0000 SCS~Type~II          S012415             
  S012415#2                 14.75    786.00      0.00  180.0000 SCS~Type~II          S012415             
  S012419#1                  4.69    199.00      0.00   30.0000 SCS~Type~II          S012419             
  S012420#1                132.24   1314.00      0.00   40.0000 SCS~Type~II          S012420             
  S012421#1                  1.94    142.00      0.00   30.0000 SCS~Type~II          S012421             
  S012436#1                 16.90    379.00      0.00   30.0000 SCS~Type~II          S012436             
  S012441#1                 11.61    495.00      0.00  150.0000 SCS~Type~II          S012441             
  S012445#1                  5.42    260.00      0.00   30.0000 SCS~Type~II          S012445             
  S012446#1                  8.21    383.00      0.00   30.0000 SCS~Type~II          S012446             
  S013405#1                 31.23    694.00     60.00  100.0000 SCS~Type~II          S013405             
  S013411#1                 62.67   1226.00      0.00   30.0000 SCS~Type~II          S013411             
  S004401#1                110.12   1416.00      0.00   40.0000 SCS~Type~II          S004401             
  S005102#1                  9.32    407.00      0.00   30.0000 SCS~Type~II          S005102             
  S005403#1                 13.82    378.00      0.00   30.0000 SCS~Type~II          S005403             
  S005404#1                  6.96    414.00      0.00   30.0000 SCS~Type~II          S005404             
  S005404#2                  7.75    181.00      0.00   30.0000 SCS~Type~II          S005404             
  S005409#1                  4.52    366.00      0.00   60.0000 SCS~Type~II          S005409             
  S005409#2                 18.33    520.00      0.00   30.0000 SCS~Type~II          S005409             
  S005410#1                 10.22    575.00      0.00   60.0000 SCS~Type~II          S005410             
  S005418#1                  5.16    324.00      0.00   30.0000 SCS~Type~II          S005418             
  S005455#1                 16.74    317.00      0.00  140.0000 SCS~Type~II          S005455             
  S011060#1                  1.89    160.00      0.00   30.0000 SCS~Type~II          S011060             
  S011065#1                  1.88    130.00      0.00   60.0000 SCS~Type~II          S011065             
  S011426#1                  1.51    274.00      0.00  260.0000 SCS~Type~II          S011426             
  S005440#1                 10.04    350.00      0.00  150.0000 SCS~Type~II          S005440             
  S005424#1                 12.88    592.00      0.00  230.0000 SCS~Type~II          S005424             
  S006471#1                  4.74    245.00      0.00  260.0000 SCS~Type~II          S006471             
  S006471#2                  2.85    174.00      0.00   90.0000 SCS~Type~II          S006471             
  S005436#1                  7.72   1340.00      0.00  380.0000 SCS~Type~II          S005436             
  S005436#2                 45.83    896.00     65.30   22.4000 SCS~Type~II          S005436             
  S005436#3                 17.87    649.00     75.80   77.4000 SCS~Type~II          S005436             
  S005452#1                 28.53    837.00      0.00   60.0000 SCS~Type~II          S005452             
  S005060#1                  4.68    546.00      0.00   50.0000 SCS~Type~II          S005060             
  S005065#1                 10.20    320.00      0.00   10.0000 SCS~Type~II          S005065             
  S005438#1                 11.75    269.00      0.00   30.0000 SCS~Type~II          S005438             
  S005016#1                  4.22    566.00      0.00   70.0000 SCS~Type~II          S005016             
  S006409#1                 12.80    489.00      0.00   40.0000 SCS~Type~II          S006409             
  S006119#1                 11.80    317.00      0.00   30.0000 SCS~Type~II          S006119             
  S006457#1                  6.30    346.00      0.00   10.0000 SCS~Type~II          S006457             
  S005456#1                  9.94    380.00      0.00   40.0000 SCS~Type~II          S005456             
  S005051#1                  2.26    404.00      0.00   30.0000 SCS~Type~II          S005051             
  S005046#1                  8.39    236.00      0.00   40.0000 SCS~Type~II          S005046             
  S005045#1                  6.66    181.00      0.00   10.0000 SCS~Type~II          S005045             
  S005411#1                 28.45   1180.00      0.00   60.0000 SCS~Type~II          S005411             
  S005408#1                  5.62    429.00      0.00  100.0000 SCS~Type~II          S005408             
  S005408#2                  4.07    299.00      0.00   26.6000 SCS~Type~II          S005408             
  S005079#1                  7.07    471.00      0.00   30.0000 SCS~Type~II          S005079             
  S005441#1                  3.87    497.00      0.00   70.0000 SCS~Type~II          S005441             
  S005056#1                  1.03    106.00      0.00   30.0000 SCS~Type~II          S005056             
  S005442#1                  1.62    196.00      0.00   50.0000 SCS~Type~II          S005442             
  S005082#1                  6.46    671.00      0.00   30.0000 SCS~Type~II          S005082             
  S005426#1                  7.65    321.00      0.00   70.0000 SCS~Type~II          S005426             
  S005036#1                 19.44    547.00      0.00   30.0000 SCS~Type~II          S005036             
  S011429#1                  8.72    570.00      0.00    0.0000 SCS~Type~II          S011429             
  S011015#1                 20.43    636.00      0.00   30.0000 SCS~Type~II          S011015             
  S011405#1                  5.36    406.00      0.00   90.0000 SCS~Type~II          S011405             
  S011004#1                  1.97    194.00      0.00   50.0000 SCS~Type~II          S011004             
  S005401#1                 45.40   1288.00      0.00   40.0000 SCS~Type~II          S005401             
  S005413#1                 12.24    656.00      0.00   90.0000 SCS~Type~II          S005413             
  S005413#2                 16.80    434.00      0.00   32.6000 SCS~Type~II          S005413             
  S005428#1                  3.48   1067.00      0.00  470.0000 SCS~Type~II          S005428             
  S005432#1                  2.50    777.00      0.00  180.0000 SCS~Type~II          S005432             
  S011441#1                  4.64    325.00      0.00   50.0000 SCS~Type~II          S011441             
  S025423#1                 10.42    813.00      0.00   10.0000 SCS~Type~II          S025423             
  S025423#2                 41.74   1046.00      0.00   31.2000 SCS~Type~II          S025423             
  S011437#1                 15.05    477.00      0.00   20.0000 SCS~Type~II          S011437             
  S011424#1                 15.88    589.00      0.00   50.0000 SCS~Type~II          S011424             
  S005038a#1                 7.19    581.00      0.00   90.0000 SCS~Type~II          S005038a            
  S005467#1                  7.16    355.00      0.00  190.0000 SCS~Type~II          S005467             
  S024497#1                  9.37    304.00      0.00   10.0000 SCS~Type~II          S024497             
  S005468#1                  1.71    147.00      0.00  110.0000 SCS~Type~II          S005468             
  S006057#1                 16.45    886.00      0.00   40.0000 SCS~Type~II          S006057             
  S006107#1                  1.22    141.00      0.00   30.0000 SCS~Type~II          S006107             
  S006107#2                  3.64    215.00      0.00    0.3000 SCS~Type~II          S006107             
  S006405#1                  7.72    478.00      0.00   30.0000 SCS~Type~II          S006405             
  S006412#1                 16.17    774.00      0.00   30.0000 SCS~Type~II          S006412             
  S006413#1                 13.51    708.00      0.00   30.0000 SCS~Type~II          S006413             
  S006415#1                 45.26    978.00      0.00   30.0000 SCS~Type~II          S006415             
  S006423#1                 11.75    472.00      0.00   30.0000 SCS~Type~II          S006423             
  S006429#1                 11.52    660.00      0.00   30.0000 SCS~Type~II          S006429             
  S006430#1                 16.21    631.00      0.00   30.0000 SCS~Type~II          S006430             
  S006431#1                  8.12    478.00      0.00   30.0000 SCS~Type~II          S006431             
  S006432#1                  2.02    296.00      0.00   30.0000 SCS~Type~II          S006432             
  S006445#1                  8.06    638.00      0.00   30.0000 SCS~Type~II          S006445             
  S006446#1                 27.91   1811.00      0.00   40.0000 SCS~Type~II          S006446             
  S006447#1                  5.62    361.00      0.00  320.0000 SCS~Type~II          S006447             
  S006449#1                  0.96     69.00      0.00   60.0000 SCS~Type~II          S006449             
  S006450#1                 10.09    238.00      0.00   30.0000 SCS~Type~II          S006450             
  S006452#1                  5.24    283.00      0.00  220.0000 SCS~Type~II          S006452             
  S006453#1                  7.79    232.00      0.00   30.0000 SCS~Type~II          S006453             
  S006456#1                 16.18    915.00      0.00  220.0000 SCS~Type~II          S006456             
  S006460#1                  6.20    344.00      0.00   40.0000 SCS~Type~II          S006460             
  S006467#1                  3.01    265.00      0.00  190.0000 SCS~Type~II          S006467             
  S009059#1                 37.09    861.00      0.00   30.0000 SCS~Type~II          S009059             
  S009063#1                  9.23    299.00      0.00   30.0000 SCS~Type~II          S009063             
  S009400#1                 40.26    938.00      0.00   30.0000 SCS~Type~II          S009400             
  S010004#1                  8.98    304.00      0.00   30.0000 SCS~Type~II          S010004             
  S010029#1                  6.47    301.00      0.00   60.0000 SCS~Type~II          S010029             
  S010036#1                 19.15    893.00      0.00   30.0000 SCS~Type~II          S010036             
  S010051#1                 11.58    378.00      0.00   30.0000 SCS~Type~II          S010051             
  S010075#1                  3.18    204.00      0.00   30.0000 SCS~Type~II          S010075             
  S010400#1                  2.78    171.00      0.00   30.0000 SCS~Type~II          S010400             
  S010403#1                  3.69    251.00      0.00   30.0000 SCS~Type~II          S010403             
  S010405#1                  5.03    420.00      0.00   30.0000 SCS~Type~II          S010405             
  S010406#1                  9.66    394.00      0.00   30.0000 SCS~Type~II          S010406             
  S010408#1                  6.70    364.00      0.00   30.0000 SCS~Type~II          S010408             
  S010411#1                 14.77    987.00      0.00  130.0000 SCS~Type~II          S010411             
  S010412#1                 10.53    400.00      0.00   30.0000 SCS~Type~II          S010412             
  S010415#1                 94.51    725.00      0.00   30.0000 SCS~Type~II          S010415             
  S010418#1                 21.36    988.00      0.00   30.0000 SCS~Type~II          S010418             
  S006416#1                 10.54    391.00      0.00   30.0000 SCS~Type~II          S006416             
  S006058#1                 20.48    576.00      0.00   30.0000 SCS~Type~II          S006058             
  S006403#1                 14.13   1142.00      0.00   40.0000 SCS~Type~II          S006403             
  S006408#1                 14.36    618.00      0.00   30.0000 SCS~Type~II          S006408             
  S006421#1                 28.89    633.00      0.00   30.0000 SCS~Type~II          S006421             
  S006426#1                 28.37    697.00      0.00   30.0000 SCS~Type~II          S006426             
  S006434#1                  3.56    272.00      0.00   30.0000 SCS~Type~II          S006434             
  S006434#2                 42.04    772.00      0.00   30.0000 SCS~Type~II          S006434             
  S010401#1                  4.98    298.00      0.00   30.0000 SCS~Type~II          S010401             
  S007400#1                 21.19    716.00      0.00   30.0000 SCS~Type~II          S007400             
  S006009#1                  2.32    300.00      0.00   30.0000 SCS~Type~II          S006009             
  S006428#1                  8.75    466.00      0.00   30.0000 SCS~Type~II          S006428             
  S006427#1                 13.90    586.00      0.00   30.0000 SCS~Type~II          S006427             
  S024419#1                 51.87    762.00      0.00   30.0000 SCS~Type~II          S024419             
  S024463#1                  0.58     74.00      0.00  270.0000 SCS~Type~II          S024463             
  S025421#1                  0.66     95.00      0.00  400.0000 SCS~Type~II          S025421             
  S024470#1                  2.77    165.00      0.00  630.0000 SCS~Type~II          S024470             
  S025420#1                  0.64     90.00      0.00   30.0000 SCS~Type~II          S025420             
  S024485#1                  2.79    118.00      0.00  570.0000 SCS~Type~II          S024485             
  S024479#1                  2.81    209.00      0.00  410.0000 SCS~Type~II          S024479             
  S025411#1                  0.44     89.00      0.00  290.0000 SCS~Type~II          S025411             
  S024030a#1                 4.30    330.00      0.00  820.0000 SCS~Type~II          S024030a            
  S025407#1                  1.85    175.00      0.00  420.0000 SCS~Type~II          S025407             
  S025418#1                  3.54    267.00      0.00  240.0000 SCS~Type~II          S025418             
  S024019#1                  3.63    267.00      0.00  540.0000 SCS~Type~II          S024019             
  S025410#1                  2.32    235.00      0.00  570.0000 SCS~Type~II          S025410             
  S024484#1                  2.08    106.00      0.00  880.0000 SCS~Type~II          S024484             
  S025002d#1                 1.47     96.00      0.00  360.0000 SCS~Type~II          S025002d            
  S024449#1                 10.08    684.00      0.00  650.0000 SCS~Type~II          S024449             
  S025402#1                  5.45    295.00      0.00  430.0000 SCS~Type~II          S025402             
  S024498#1                  7.81    469.00      0.00   30.0000 SCS~Type~II          S024498             
  S025406#1                  1.68    108.00      0.00  350.0000 SCS~Type~II          S025406             
  S024468#1                  4.26    301.00      0.00  490.0000 SCS~Type~II          S024468             
  S024488#1                  9.04    442.00      0.00   30.0000 SCS~Type~II          S024488             
  S024459#1                  4.79    286.00      0.00  410.0000 SCS~Type~II          S024459             
  S025401#1                  1.72    179.00      0.00  680.0000 SCS~Type~II          S025401             
  S024065b#1                 0.51     85.00      0.00  510.0000 SCS~Type~II          S024065b            
  S024457#1                  2.43    205.00      0.00  620.0000 SCS~Type~II          S024457             
  S024408#1                 41.41    710.00      0.00   50.0000 SCS~Type~II          S024408             
  S024438#1                  7.16    333.00      0.00  380.0000 SCS~Type~II          S024438             
  S024432#1                  4.74    315.00      0.00  340.0000 SCS~Type~II          S024432             
  S024081#1                  6.99    448.00      0.00  410.0000 SCS~Type~II          S024081             
  S024427#1                 11.97    375.00      0.00  220.0000 SCS~Type~II          S024427             
  S024422#1                  4.78    204.00      0.00  450.0000 SCS~Type~II          S024422             
  S024042#1                  3.15    177.00      0.00  360.0000 SCS~Type~II          S024042             
  S024400#1                 18.76    486.00      0.00  270.0000 SCS~Type~II          S024400             
  S004400#1                 18.59    434.00      0.00   50.0000 SCS~Type~II          S004400             
  S004400#2                 25.94    467.00      0.00   30.0000 SCS~Type~II          S004400             
  S004403#1                 31.32    748.00      0.00   30.0000 SCS~Type~II          S004403             
  S004405#1                 25.54    745.00      0.00  180.0000 SCS~Type~II          S004405             
  S012407#1                 14.02    477.00      0.00   30.0000 SCS~Type~II          S012407             
  S012408#1                 36.79    843.00      0.00   30.0000 SCS~Type~II          S012408             
  
  
  ************
  Node Summary
  ************
                                           Invert      Max.    Ponded    External
  Name                 Type                 Elev.     Depth      Area    Inflow  
  -------------------------------------------------------------------------------
  S011401              JUNCTION            729.38     14.93       0.0
  S011404              JUNCTION            726.91      8.00       0.0
  S011408              JUNCTION            734.52     42.78       0.0
  S011409              JUNCTION            736.79      8.21       0.0
  S011410              JUNCTION            730.87      5.46       0.0
  S011411              JUNCTION            733.83      1.27       0.0
  S011412              JUNCTION            731.33      3.65       0.0
  S011413              JUNCTION            732.67      5.94       0.0
  S011414              JUNCTION            734.01      1.19       0.0
  S011415              JUNCTION            733.24      2.56       0.0
  S011416              JUNCTION            733.33      1.97       0.0
  S011417              JUNCTION            733.71      1.79       0.0
  S011421              JUNCTION            733.14      2.87       0.0
  S011422              JUNCTION            729.77      3.93       0.0
  S011423              JUNCTION            728.99      4.01       0.0
  S011430              JUNCTION            729.77      4.13       0.0
  S011431              JUNCTION            729.34      4.56       0.0
  S011432              JUNCTION            729.67      3.93       0.0
  S011433              JUNCTION            729.73      3.87       0.0
  S011434              JUNCTION            729.80      3.90       0.0
  S011435              JUNCTION            729.83      3.87       0.0
  S011442              JUNCTION            726.67     18.33       0.0
  S012018              JUNCTION            727.49      5.68       0.0
  S012019              JUNCTION            727.52      5.70       0.0
  S012035              JUNCTION            729.39      4.11       0.0
  S012036              JUNCTION            729.39      3.70       0.0
  S012037              JUNCTION            731.28      4.00       0.0
  S012038              JUNCTION            727.97      3.50       0.0
  S012040              JUNCTION            731.26      1.04       0.0
  S012040a             JUNCTION            726.27      4.63       0.0
  S012040b             JUNCTION            725.91      4.99       0.0
  S012043              JUNCTION            727.73      3.70       0.0
  S012402              JUNCTION            725.57      4.73       0.0
  S012406              JUNCTION            727.78      5.42       0.0
  S012409              JUNCTION            734.50      2.40       0.0
  S012410              JUNCTION            727.34      4.00       0.0
  S012411              JUNCTION            729.71      4.89       0.0
  S012412              JUNCTION            728.01      5.99       0.0
  S012413              JUNCTION            726.39      5.61       0.0
  S012414              JUNCTION            726.87      6.23       0.0
  S012415              JUNCTION            726.09      4.41       0.0
  S012416              JUNCTION            728.38      4.86       0.0
  S012417              JUNCTION            728.48      4.90       0.0
  S012418              JUNCTION            728.89      4.77       0.0
  S012419              JUNCTION            729.91      4.45       0.0
  S012420              JUNCTION            728.99      7.11       0.0
  S012421              JUNCTION            728.83      6.77       0.0
  S012422              JUNCTION            728.04      5.86       0.0
  S012423              JUNCTION            727.42      6.48       0.0
  S012424              JUNCTION            727.69      4.41       0.0
  S012425              JUNCTION            728.83      5.97       0.0
  S012426              JUNCTION            727.78      4.72       0.0
  S012427              JUNCTION            726.94      5.76       0.0
  S012428              JUNCTION            726.90      5.80       0.0
  S012429              JUNCTION            731.87      4.01       0.0
  S012430              JUNCTION            725.15      5.13       0.0
  S012431              JUNCTION            725.18      5.12       0.0
  S012432              JUNCTION            726.75      6.45       0.0
  S012433              JUNCTION            726.93      6.27       0.0
  S012434              JUNCTION            732.52      5.48       0.0
  S012436              JUNCTION            734.30      3.70       0.0
  S012438              JUNCTION            726.40      5.60       0.0
  S012439              JUNCTION            726.41      5.49       0.0
  S012440              JUNCTION            728.47     33.43       0.0
  S012441              JUNCTION            728.68     33.22       0.0
  S012442              JUNCTION            728.77     36.33       0.0
  S012443              JUNCTION            728.79     36.31       0.0
  S012444              JUNCTION            726.81      6.20       0.0
  S012445              JUNCTION            727.48      4.12       0.0
  S012446              JUNCTION            727.10      4.70       0.0
  S012447              JUNCTION            728.05      3.50       0.0
  S013400              JUNCTION            720.70     15.30       0.0
  S013402              JUNCTION            722.06      4.00       0.0
  S013403              JUNCTION            722.39      4.00       0.0
  S013404              JUNCTION            722.39      6.13       0.0
  S013405              JUNCTION            722.80      5.72       0.0
  S013406              JUNCTION            724.73      6.00       0.0
  S013407              JUNCTION            724.87      6.00       0.0
  S013408              JUNCTION            725.00      4.36       0.0
  S013409              JUNCTION            725.03      4.28       0.0
  S013411              JUNCTION            720.75     10.15       0.0
  S012451              JUNCTION            734.42      2.58       0.0
  S004401              JUNCTION            727.19     22.81       0.0
  S005102              JUNCTION            732.00      4.00       0.0
  S005403              JUNCTION            730.10      5.90       0.0
  S005404              JUNCTION            730.00      6.00       0.0
  S005409              JUNCTION            727.90      4.10       0.0
  S005410              JUNCTION            726.00      8.00       0.0
  S005418              JUNCTION            727.47      8.10       0.0
  S005455              JUNCTION            730.30     11.70       0.0
  S011060              JUNCTION            728.50      3.50       0.0
  S011065              JUNCTION            728.29      3.71       0.0
  S011426              JUNCTION            729.93      2.07       0.0
  S004406              JUNCTION            725.60     22.40       0.0
  S004407              JUNCTION            727.00     21.00       0.0
  S005103              JUNCTION            731.77      4.23       0.0
  S005419              JUNCTION            727.70      8.10       0.0
  S005454              JUNCTION            730.42     11.58       0.0
  S011068              JUNCTION            728.28      3.72       0.0
  S011075              JUNCTION            728.28      4.02       0.0
  S011077              JUNCTION            728.23      4.07       0.0
  S011419              JUNCTION            728.27      4.03       0.0
  S011428              JUNCTION            728.19      3.81       0.0
  S011440              JUNCTION            728.30      3.70       0.0
  S005440              JUNCTION            728.61      5.89       0.0
  S005424              JUNCTION            729.50      4.62       0.0
  S006471              JUNCTION            728.90      5.89       0.0
  S005436              JUNCTION            723.51     10.49       0.0
  S005452              JUNCTION            729.00      4.90       0.0
  S005060              JUNCTION            727.50      5.20       0.0
  S005065              JUNCTION            728.47      5.02       0.0
  S005438              JUNCTION            726.75      7.31       0.0
  S005016              JUNCTION            728.96      5.54       0.0
  S006409              JUNCTION            728.14      5.86       0.0
  S006119              JUNCTION            728.33      5.78       0.0
  S006457              JUNCTION            729.55      4.50       0.0
  S005456              JUNCTION            731.58      2.00       0.0
  S005051              JUNCTION            727.51      6.29       0.0
  S005046              JUNCTION            727.84      5.27       0.0
  S005045              JUNCTION            727.94      4.88       0.0
  S005408              JUNCTION            728.80      3.70       0.0
  S005079              JUNCTION            730.60      4.20       0.0
  S005441              JUNCTION            724.00     10.00       0.0
  S005056              JUNCTION            729.00      4.32       0.0
  S005442              JUNCTION            725.59      7.88       0.0
  S005082              JUNCTION            729.46      4.00       0.0
  S005426              JUNCTION            727.24      6.76       0.0
  S005036              JUNCTION            729.83      3.66       0.0
  S011429              JUNCTION            728.23      6.04       0.0
  S011015              JUNCTION            728.99      4.94       0.0
  S011405              JUNCTION            731.08      3.42       0.0
  S011004              JUNCTION            731.60      3.90       0.0
  S005413              JUNCTION            724.26      9.74       0.0
  S005428              JUNCTION            726.97      7.03       0.0
  S005432              JUNCTION            726.86      7.48       0.0
  S011441              JUNCTION            727.52      6.48       0.0
  S025423              JUNCTION            725.28      8.72       0.0
  S011437              JUNCTION            726.70      7.30       0.0
  S011424              JUNCTION            732.08      3.92       0.0
  S005028              JUNCTION            728.98      4.92       0.0
  S005037              JUNCTION            729.66      3.83       0.0
  S005038a             JUNCTION            729.46      4.54       0.0
  S005043              JUNCTION            728.61      5.89       0.0
  S005044              JUNCTION            728.00      4.21       0.0
  S005047              JUNCTION            727.92      4.45       0.0
  S005058              JUNCTION            728.65      4.67       0.0
  S005062              JUNCTION            726.55      5.93       0.0
  S005064              JUNCTION            728.29      4.40       0.0
  S005073              JUNCTION            724.00      9.00       0.0
  S005078              JUNCTION            730.48      3.08       0.0
  S005081              JUNCTION            729.38      3.91       0.0
  S005406              JUNCTION            723.67     10.33       0.0
  S005407              JUNCTION            724.87      9.13       0.0
  S005412              JUNCTION            725.75      8.59       0.0
  S005414              JUNCTION            725.21      8.79       0.0
  S005417              JUNCTION            727.98      6.02       0.0
  S005420              JUNCTION            728.13      5.87       0.0
  S005421              JUNCTION            728.12      5.88       0.0
  S005422              JUNCTION            727.70      6.30       0.0
  S005423              JUNCTION            728.11      5.89       0.0
  S005425              JUNCTION            730.01      4.29       0.0
  S005427              JUNCTION            727.58      6.89       0.0
  S005429              JUNCTION            728.67      4.83       0.0
  S005430              JUNCTION            724.00      9.00       0.0
  S005431              JUNCTION            724.00     10.00       0.0
  S005433              JUNCTION            725.79      8.55       0.0
  S005434              JUNCTION            724.10      9.90       0.0
  S005435              JUNCTION            724.92      9.08       0.0
  S005437              JUNCTION            723.82     10.18       0.0
  S005439              JUNCTION            728.40      6.10       0.0
  S005443              JUNCTION            728.72      5.51       0.0
  S005444              JUNCTION            725.69      8.31       0.0
  S005445              JUNCTION            724.00     11.68       0.0
  S005446              JUNCTION            725.96      8.04       0.0
  S005447              JUNCTION            727.07      7.83       0.0
  S005448              JUNCTION            724.26      9.74       0.0
  S005451              JUNCTION            729.17      4.83       0.0
  S005453              JUNCTION            728.88      5.02       0.0
  S005457              JUNCTION            729.45      4.67       0.0
  S005458              JUNCTION            729.07      6.54       0.0
  S005459              JUNCTION            729.35      4.77       0.0
  S005462              JUNCTION            729.66      4.04       0.0
  S005467              JUNCTION            729.54      4.46       0.0
  S006106              JUNCTION            729.53      5.09       0.0
  S006117              JUNCTION            729.00      5.62       0.0
  S006118              JUNCTION            728.29      5.82       0.0
  S006400              JUNCTION            728.68      5.68       0.0
  S006440              JUNCTION            728.96      5.66       0.0
  S006458              JUNCTION            729.32      4.80       0.0
  S006459              JUNCTION            728.63      6.91       0.0
  S011005              JUNCTION            731.53      2.97       0.0
  S011418              JUNCTION            728.87      5.06       0.0
  S011425              JUNCTION            730.90      5.10       0.0
  S011439              JUNCTION            725.12      8.88       0.0
  S011438              JUNCTION            726.25      7.77       0.0
  S025422              JUNCTION            726.42      7.58       0.0
  S024497              JUNCTION            730.60      4.40       0.0
  S027498              JUNCTION            730.30      4.70       0.0
  S005468              JUNCTION            724.21      9.79       0.0
  S006057              JUNCTION            729.01      6.30       0.0
  S006107              JUNCTION            730.00      4.00       0.0
  S006405              JUNCTION            733.77      2.73       0.0
  S006412              JUNCTION            723.04     14.00       0.0
  S006413              JUNCTION            722.82     13.82       0.0
  S006415              JUNCTION            722.38     13.51       0.0
  S006423              JUNCTION            723.35     13.00       0.0
  S006429              JUNCTION            727.32     10.00       0.0
  S006430              JUNCTION            730.28      6.50       0.0
  S006431              JUNCTION            732.21      3.20       0.0
  S006432              JUNCTION            732.28      5.50       0.0
  S006445              JUNCTION            729.00      6.55       0.0
  S006446              JUNCTION            726.22      5.80       0.0
  S006447              JUNCTION            727.99      6.43       0.0
  S006449              JUNCTION            727.07      9.53       0.0
  S006450              JUNCTION            727.91      8.69       0.0
  S006452              JUNCTION            727.42      9.18       0.0
  S006453              JUNCTION            727.71      8.89       0.0
  S006456              JUNCTION            724.00     11.80       0.0
  S006460              JUNCTION            732.40      4.84       0.0
  S006467              JUNCTION            727.39     11.01       0.0
  S009059              JUNCTION            732.08      7.72       0.0
  S009063              JUNCTION            735.95      4.75       0.0
  S009400              JUNCTION            733.01      6.70       0.0
  S010004              JUNCTION            735.57      4.97       0.0
  S010029              JUNCTION            733.60      6.76       0.0
  S010036              JUNCTION            725.58     14.60       0.0
  S010051              JUNCTION            727.13      9.04       0.0
  S010075              JUNCTION            729.82      5.00       0.0
  S010400              JUNCTION            732.00      4.00       0.0
  S010403              JUNCTION            728.85      6.63       0.0
  S010405              JUNCTION            731.54      4.70       0.0
  S010406              JUNCTION            730.88      4.80       0.0
  S010408              JUNCTION            725.03     16.50       0.0
  S010411              JUNCTION            729.11      9.50       0.0
  S010412              JUNCTION            730.50      5.36       0.0
  S010415              JUNCTION            733.07      8.48       0.0
  S010418              JUNCTION            728.58     10.80       0.0
  S006108              JUNCTION            729.26      4.74       0.0
  S006404              JUNCTION            721.70     13.33       0.0
  S006406              JUNCTION            720.01     20.22       0.0
  S006411              JUNCTION            723.41     12.50       0.0
  S006420              JUNCTION            721.83     11.66       0.0
  S006422              JUNCTION            721.68     13.50       0.0
  S006433              JUNCTION            730.82      6.27       0.0
  S006443              JUNCTION            720.83     17.34       0.0
  S006444              JUNCTION            720.18     19.88       0.0
  S006455              JUNCTION            727.26      8.90       0.0
  S006463              JUNCTION            732.20      5.07       0.0
  S006464              JUNCTION            731.49      5.78       0.0
  S006466              JUNCTION            727.18     11.22       0.0
  S006468              JUNCTION            727.92     10.08       0.0
  S006469              JUNCTION            728.00      6.42       0.0
  S006470              JUNCTION            728.12      6.67       0.0
  S006472              JUNCTION            727.41      9.19       0.0
  S009060              JUNCTION            731.90      7.90       0.0
  S009061              JUNCTION            730.00     10.00       0.0
  S010005              JUNCTION            735.80      4.30       0.0
  S010014              JUNCTION            735.19      4.58       0.0
  S010016              JUNCTION            734.86      6.33       0.0
  S010018              JUNCTION            734.67      5.81       0.0
  S010034              JUNCTION            732.93      8.46       0.0
  S010038              JUNCTION            732.25      4.50       0.0
  S010039              JUNCTION            731.78      4.40       0.0
  S010042              JUNCTION            731.10      5.90       0.0
  S010052              JUNCTION            726.73     15.53       0.0
  S010060              JUNCTION            728.24      7.74       0.0
  S010067              JUNCTION            728.66      6.60       0.0
  S010074              JUNCTION            729.41      6.04       0.0
  S010077              JUNCTION            731.45      3.68       0.0
  S010402              JUNCTION            730.35      6.94       0.0
  S010404              JUNCTION            729.95      5.16       0.0
  S010407              JUNCTION            727.81      7.70       0.0
  S010409              JUNCTION            725.28     11.27       0.0
  S010413              JUNCTION            725.96     12.84       0.0
  S010416              JUNCTION            730.13      8.22       0.0
  S010419              JUNCTION            729.38     10.00       0.0
  S010421              JUNCTION            728.98      6.33       0.0
  S006416              JUNCTION            722.00     14.60       0.0
  S006417              JUNCTION            721.97     14.55       0.0
  S006418              JUNCTION            722.57     18.45       0.0
  S006419              JUNCTION            722.37     14.69       0.0
  S006058              JUNCTION            726.45      9.20       0.0
  S006075              JUNCTION            727.53      8.80       0.0
  S006403              JUNCTION            727.30      9.56       0.0
  S006408              JUNCTION            724.53     10.95       0.0
  S006421              JUNCTION            722.56     10.86       0.0
  S006426              JUNCTION            726.46     10.22       0.0
  S006434              JUNCTION            728.14     10.30       0.0
  S006435              JUNCTION            726.91     10.70       0.0
  S006436              JUNCTION            729.92      5.45       0.0
  S006437              JUNCTION            727.22      9.78       0.0
  S006441              JUNCTION            727.35      9.51       0.0
  S006442              JUNCTION            727.40      9.46       0.0
  S010027              JUNCTION            727.41      8.57       0.0
  S010401              JUNCTION            736.20      0.80       0.0
  S010410              JUNCTION            726.01     10.42       0.0
  S007400              JUNCTION            725.43     11.93       0.0
  S006424              JUNCTION            726.94     10.40       0.0
  S006009              JUNCTION            725.65     10.25       0.0
  S006425              JUNCTION            724.24     12.50       0.0
  S006428              JUNCTION            726.52      9.10       0.0
  S006438              JUNCTION            725.96     10.14       0.0
  S006427              JUNCTION            723.52     18.26       0.0
  S024419              JUNCTION            748.34      6.16       0.0
  S024463              JUNCTION            855.44      8.00       0.0
  S025421              JUNCTION            862.06      9.80       0.0
  S024470              JUNCTION            821.81      5.90       0.0
  S025420              JUNCTION            877.64      8.00       0.0
  S024485              JUNCTION            829.75      5.91       0.0
  S024479              JUNCTION            855.00      9.48       0.0
  S025411              JUNCTION            893.74      5.00       0.0
  S024030a             JUNCTION            817.00      6.12       0.0
  S025407              JUNCTION            899.68      5.00       0.0
  S025418              JUNCTION            860.76     10.11       0.0
  S024019              JUNCTION            843.54      8.87       0.0
  S025410              JUNCTION            882.53     11.40       0.0
  S024484              JUNCTION            829.75      8.60       0.0
  S025002d             JUNCTION            864.30     16.20       0.0
  S024449              JUNCTION            777.38     13.48       0.0
  S025402              JUNCTION            842.16     16.77       0.0
  S024498              JUNCTION            793.66      8.28       0.0
  S025406              JUNCTION            867.00      5.00       0.0
  S024468              JUNCTION            803.47     16.68       0.0
  S024488              JUNCTION            781.09     12.30       0.0
  S024459              JUNCTION            828.51     10.60       0.0
  S025401              JUNCTION            835.33      9.14       0.0
  S024065b             JUNCTION            793.76      6.24       0.0
  S024457              JUNCTION            810.42     18.45       0.0
  S024408              JUNCTION            740.00     12.00       0.0
  S024438              JUNCTION            773.76     14.24       0.0
  S024432              JUNCTION            788.50     10.10       0.0
  S024081              JUNCTION            756.57     14.16       0.0
  S024427              JUNCTION            753.60     17.83       0.0
  S024422              JUNCTION            743.60      3.30       0.0
  S024042              JUNCTION            833.50     10.20       0.0
  S024095              JUNCTION            740.00     12.00       0.0
  S024400              JUNCTION            748.26      4.74       0.0
  S024401              JUNCTION            740.00     10.00       0.0
  S024402              JUNCTION            748.23      3.77       0.0
  S024403              JUNCTION            748.00      4.00       0.0
  S024404              JUNCTION            746.00      6.00       0.0
  S024405              JUNCTION            743.90      6.10       0.0
  S024406              JUNCTION            742.14      7.86       0.0
  S024407              JUNCTION            740.00     12.00       0.0
  S024409              JUNCTION            739.05     12.95       0.0
  S024411              JUNCTION            731.10     30.50       0.0
  S024412              JUNCTION            734.03     17.30       0.0
  S024413              JUNCTION            735.86     16.64       0.0
  S024414              JUNCTION            738.36     14.40       0.0
  S024415              JUNCTION            739.76     14.24       0.0
  S024416              JUNCTION            741.31      7.69       0.0
  S024417              JUNCTION            741.19     13.80       0.0
  S024418              JUNCTION            742.14     11.96       0.0
  S024420              JUNCTION            742.81      3.25       0.0
  S024421              JUNCTION            747.95      6.55       0.0
  S024423              JUNCTION            743.35      2.75       0.0
  S024424              JUNCTION            748.07      9.30       0.0
  S024430              JUNCTION            751.76     28.38       0.0
  S024431              JUNCTION              0.00    784.00       0.0
  S024437              JUNCTION            781.77     16.73       0.0
  S024439              JUNCTION            755.90     16.10       0.0
  S024440              JUNCTION            748.41      6.59       0.0
  S024441              JUNCTION            754.40      5.80       0.0
  S024442              JUNCTION            760.39     14.38       0.0
  S024443              JUNCTION            757.41      9.90       0.0
  S024444              JUNCTION            760.34     14.93       0.0
  S024445              JUNCTION            764.60     20.05       0.0
  S024446              JUNCTION            779.00      9.40       0.0
  S024447              JUNCTION            767.72     18.40       0.0
  S024448              JUNCTION            766.73     20.10       0.0
  S024450              JUNCTION            771.31     15.20       0.0
  S024453              JUNCTION            787.14      9.36       0.0
  S024455              JUNCTION            799.44     14.90       0.0
  S024460              JUNCTION            829.46     17.29       0.0
  S024461              JUNCTION            835.55     14.36       0.0
  S024462              JUNCTION            841.04     10.30       0.0
  S024464              JUNCTION            836.36      2.92       0.0
  S024465              JUNCTION            804.58     15.72       0.0
  S024469              JUNCTION            810.29     11.21       0.0
  S024471              JUNCTION            810.33     11.86       0.0
  S024472              JUNCTION            799.45     13.54       0.0
  S024473              JUNCTION            799.50      6.50       0.0
  S024480              JUNCTION            834.62     10.48       0.0
  S024481              JUNCTION            824.78     16.92       0.0
  S024482              JUNCTION            803.25      7.31       0.0
  S024483              JUNCTION            810.34      4.97       0.0
  S024486              JUNCTION            810.02      3.98       0.0
  S024487              JUNCTION            796.05      6.05       0.0
  S024489              JUNCTION            751.42     10.69       0.0
  S024491              JUNCTION            759.14     11.76       0.0
  S024496              JUNCTION            850.22      3.15       0.0
  S025400              JUNCTION            832.68     16.20       0.0
  S025404              JUNCTION            851.90     17.61       0.0
  S025405              JUNCTION            860.59     19.02       0.0
  S025408              JUNCTION            895.59      8.10       0.0
  S025412              JUNCTION            871.12      9.86       0.0
  S025417              JUNCTION            850.18     10.00       0.0
  S025419              JUNCTION            867.58      5.56       0.0
  S024494              JUNCTION            727.33     12.67       0.0
  S024490              JUNCTION            749.71     16.03       0.0
  S010047              JUNCTION            734.48      5.88       0.0
  S006008              JUNCTION            722.57     13.43       0.0
  S024190              JUNCTION            757.23      9.62       0.0
  S024499              JUNCTION            738.71     16.59       0.0
  S010040              JUNCTION            728.13     10.47       0.0
  S004400              JUNCTION            724.00      6.00       0.0
  S004403              JUNCTION            722.00      8.00       0.0
  S012407              JUNCTION            729.13      2.87       0.0
  S012408              JUNCTION            729.94      2.06       0.0
  S012449              JUNCTION            727.43      4.57       0.0
  S004411              JUNCTION            716.15     31.85       0.0
  S004410              JUNCTION            716.50     31.50       0.0
  S004408              JUNCTION            717.74     12.76       0.0
  S013410              OUTFALL             720.70      6.00       0.0
  S004402              OUTFALL             715.27     18.00       0.0
  N123                 OUTFALL             723.20      9.96       0.0
  N518                 OUTFALL             719.11      6.00       0.0
  S004412              OUTFALL             713.00      6.00       0.0
  S024494a             OUTFALL             727.03     12.00       0.0
  S011400              STORAGE             727.40      6.00       0.0
  S011402              STORAGE             728.00      6.60       0.0
  S011403              STORAGE             723.60     12.40       0.0
  S011407              STORAGE             731.32     12.00       0.0
  S012400              STORAGE             727.92      4.08       0.0
  S012401              STORAGE             729.50      2.50       0.0
  S012403              STORAGE             726.56      3.44       0.0
  S012404              STORAGE             726.13      5.87       0.0
  S012405              STORAGE             727.80      4.37       0.0
  S012450              STORAGE             725.86     11.14       0.0
  N34                  STORAGE             724.00     10.00       0.0
  S005411              STORAGE             724.00     10.00       0.0
  S005401              STORAGE             723.80     10.20       0.0
  S004405              STORAGE             720.00     13.00       0.0
  S012448              STORAGE             727.56      4.44       0.0
  
  
  ************
  Link Summary
  ************
  Name             From Node        To Node          Type            Length    %Slope Roughness
  ---------------------------------------------------------------------------------------------
  HTL5-2(01)       S011400          S011401          CONDUIT           85.7    0.1051    0.0450
  HTL5(03)         S011401          S011423          CONDUIT          417.2   -0.0024    0.0450
  HAL7(02)         S011402          S011404          CONDUIT          115.8    0.9416    0.0400
  HAL6(03)         S011403          S011408          CONDUIT          866.8   -1.2599    0.0010
  HAL6(12)         S011403          S012443          CONDUIT          735.8   -0.7054    0.0010
  HAL7(01)         S011404          S011442          CONDUIT          495.4    0.0484    0.0350
  HAL6(02)         S011408          S011409          CONDUIT          300.8   -0.7546    0.0140
  HAMC(35)         S011409          S012400          CONDUIT         1784.3    0.4971    0.0010
  HTL5-4(01)       S011411          S011410          CONDUIT          104.4    2.8341    0.0140
  HTL5(05)         S011410          S011431          CONDUIT          301.4    0.5087    0.0140
  HTL5(06)         S011412          S011410          CONDUIT           89.5    0.5084    0.0140
  HTL5(07)         S011413          S011412          CONDUIT          264.1    0.5085    0.0140
  HTL5-5(02)       S011414          S011415          CONDUIT           97.0    0.7899    0.0140
  HTL5-5(01)       S011415          S011421          CONDUIT           13.6    0.7874    0.0140
  HTL5(09)         S011416          S011421          CONDUIT           37.1    0.5092    0.0140
  HTL5(10)         S011417          S011416          CONDUIT           75.5    0.5083    0.0140
  HTL5(08)         S011421          S011413          CONDUIT           91.5    0.5090    0.0140
  HTL5-1(03)       S011422          S011433          CONDUIT           69.7    0.0645    0.0350
  HTL5-3(01)       S011430          S011431          CONDUIT          113.5    0.3790    0.0140
  HTL5(04)         S011431          S011401          CONDUIT         1697.1   -0.0024    0.0450
  HTL5-1(01)       S011432          S011423          CONDUIT         1378.3    0.0493    0.0450
  HTL5-1(02)       S011433          S011432          CONDUIT           90.4    0.0653    0.0140
  HTL5-1(04)       S011434          S011422          CONDUIT           40.0    0.0650    0.0350
  HTL5-1(05)       S011435          S011434          CONDUIT           46.0    0.0652    0.0140
  HAMC(36)         S011442          S011409          CONDUIT          404.7   -2.5015    0.0200
  HAL4(05)         S012018          S012423          CONDUIT           72.2    0.0886    0.0140
  HAL4(06)         S012019          S012018          CONDUIT           38.9    0.0900    0.0140
  HAL2-1(06)       S012035          S012036          CONDUIT           79.2    0.0013    0.0140
  HAL4-1(04)       S012035          S012037          CONDUIT          466.6   -0.3815    0.0350
  HAL4-1(03)       S012037          S012425          CONDUIT          103.9    2.3587    0.0140
  HAL2-1(04)       S012447          S012038          CONDUIT           10.7    0.7512    0.0140
  HAL4-1(10)       S012040          S012037          CONDUIT           52.0   -0.0385    0.0140
  HAMC(26)         S012040a         S012403          CONDUIT          409.9   -0.0717    0.0001
  HAMC(27)         S012040b         S012040a         CONDUIT           64.4   -0.5590    0.0140
  HAMC(34)         S012400          S012439          CONDUIT           27.2    5.5519    0.0010
  HAL1(01)         S012401          S012402          CONDUIT          124.9    2.8029    0.0350
  HAMC(16)         S012402          S012431          CONDUIT          520.8    0.0739    0.0350
  HAMC(25)         S012403          S012433          CONDUIT          510.5   -0.0717    0.0010
  HAL3(02)         S012405          S012410          CONDUIT          127.8    2.0510    0.0010
  HAL5(01)         S012406          S012400          CONDUIT         1210.5   -0.0116    0.0350
  HAL2(05)         S012451          S012436          CONDUIT         1538.2    0.0079    0.0350
  HAL3(01)         S012410          S012432          CONDUIT          543.1    0.1086    0.0350
  HAL5(06)         S012411          S012421          CONDUIT          330.1    0.2657    0.0350
  HAL4(08)         S012412          S012424          CONDUIT          356.1    0.0902    0.0350
  HAMC(31)         S012413          S012404          CONDUIT          303.1    0.1297    0.0350
  HAMC(20)         S012414          S012415          CONDUIT          613.7    0.2346    0.0350
  HAMC(17)         S012415          S012402          CONDUIT         1378.2    0.0377    0.0350
  HAL5(03)         S012416          S012422          CONDUIT          126.8    0.2658    0.0140
  HAL5(04)         S012417          S012416          CONDUIT           38.8    0.2655    0.0140
  HAL5-1(02)       S012419          S012418          CONDUIT          228.7    0.4470    0.0140
  HAL2(02)         S012420          S012429          CONDUIT          102.5    0.1999    0.0140
  HAL5(05)         S012421          S012417          CONDUIT          133.2    0.2650    0.0140
  HAL4(04)         S012423          S012446          CONDUIT          357.1    0.0902    0.0350
  HAL4(07)         S012424          S012019          CONDUIT          186.5    0.0901    0.0140
  HAL4-1(02)       S012425          S012445          CONDUIT          600.5    0.2248    0.0350
  HAL4(01)         S012426          S012413          CONDUIT          968.8    0.1297    0.0350
  HAMC(22)         S012427          S012428          CONDUIT           56.0   -0.3753    0.0140
  HAMC(21)         S012428          S012414          CONDUIT           42.3    0.0662    0.0350
  HAL2(01)         S012429          S012414          CONDUIT           27.1   16.2549    0.0350
  HAMC(14)         S012430          S013409          CONDUIT          164.8    0.0734    0.0350
  HAMC(15)         S012431          S012430          CONDUIT           40.0    0.0750    0.0140
  HAMC(23)         S012432          S012427          CONDUIT          185.0   -0.4270    0.0350
  HAMC(24)         S012433          S012432          CONDUIT           76.6   -0.1671    0.0240
  HAL2(03)         S012434          S012420          CONDUIT          215.7    1.6355    0.0350
  HAL2(04)         S012436          S012434          CONDUIT           46.3    3.8490    0.0140
  HAL3(03)         S012440          S012405          CONDUIT         1234.8    0.0543    0.0010
  HAL3(04)         S012441          S012440          CONDUIT          251.3    0.0836    0.0140
  HAL6(10)         S012442          S012400          CONDUIT          362.1    0.2348    0.0350
  HAL6(11)         S012443          S012442          CONDUIT          266.2    0.0075    0.0140
  HAL4(02)         S012444          S012426          CONDUIT           90.9   -1.0674    0.0140
  HAL4-1(01)       S012445          S012444          CONDUIT           22.1    3.0400    0.0140
  HAL4(03)         S012446          S012444          CONDUIT          184.5    0.1572    0.0140
  HAL2-1(05)       S012036          S012447          CONDUIT          343.5    0.3901    0.0140
  HAMC(02)         S013400          S013410          CONDUIT          143.8    0.0007    0.0140
  HAMC(06)         S013404          S013403          CONDUIT           20.2    0.0050    0.0140
  HAMC(05)         S013403          S013402          CONDUIT          103.3    0.3194    0.0140
  HAMC(07)         S013405          S013404          CONDUIT           21.8    1.8968    0.0140
  HAMC(10)         S013406          S013405          CONDUIT          101.4    1.8996    0.0350
  HAMC(11)         S013407          S013406          CONDUIT           41.1    0.3410    0.0140
  HAMC(12)         S013408          S013407          CONDUIT          180.3    0.0738    0.0350
  HAMC(13)         S013409          S013408          CONDUIT           40.9    0.0757    0.0140
  HAMC(03)         S013411          S013400          CONDUIT          178.8    0.0280    0.1400
  HAL5-1(01)       S012418          S012417          CONDUIT           91.3    0.4468    0.0140
  HAL5(02)         S012422          S012406          CONDUIT          331.4    0.0785    0.0350
  HAMC(04)         S013402          S013411          CONDUIT          653.0    0.2006    0.0350
  HAMC(33)         S012439          S012438          CONDUIT           34.8    0.0316    0.0140
  HAMC(32)         S012438          S012413          CONDUIT           21.5    0.0372    0.0350
  HAMC(30)         S012404          S012040b         CONDUIT          257.4    0.0858    0.0140
  HAL2-1(03)       S012038          S012043          CONDUIT           52.2    0.4594    0.0140
  HAL2-1(02)       S012043          S012450          CONDUIT         1582.7    0.1182    0.0400
  HAL2-1(01)       S012450          S012451          CONDUIT           86.9    0.0012    0.0400
  HAL2(06)         S012409          S012451          CONDUIT          984.0    0.0079    0.0400
  HTL2(05)         S005455          S005454          CONDUIT          183.8   -0.0653    0.0140
  HTL5(01)         S011075          S011077          CONDUIT           57.5    0.0765    0.0140
  HTMC(13)         S011060          S011440          CONDUIT           81.5    0.2442    0.0140
  HTMC(12)         S011440          S011065          CONDUIT           39.0    0.0205    0.0140
  HTL4(02)         S011426          S011428          CONDUIT          128.1    1.3577    0.0140
  HTMC(11)         S011065          S011068          CONDUIT           50.9    0.0177    0.0140
  HTL4(01)         S011428          S011419          CONDUIT           14.1    0.2057    0.0010
  HTL3(02)         S005102          S005103          CONDUIT           50.8    0.4449    0.0130
  HTL2(02)         S005419          S005418          CONDUIT           60.3    0.3748    0.0140
  HTMC(07)         S011077          S005409          CONDUIT         1756.1    0.0190    0.0240
  HTL3(01)         S005103          S005409          CONDUIT          398.2    0.4455    0.0240
  HTMC(06)         S005409          S005410          CONDUIT          857.1    0.4667    0.0240
  HTMC(04)         N34              S004401          CONDUIT          596.7   -0.5346    0.0240
  HTL2(01)         S005418          S005410          CONDUIT          392.9    0.3752    0.0250
  HTL2(03)         S005404          S005419          CONDUIT          602.4    0.3818    0.0240
  HTL2-1(01)       S005403          S005404          CONDUIT          861.6    0.0348    0.0240
  HTMC(03)         S004401          S004407          CONDUIT         1172.8    0.0162    0.0240
  HTMC(02)         S004407          S004406          CONDUIT          175.4    0.7959    0.0140
  HTMC(01)         S004406          S004402          CONDUIT         1298.9    0.7956    0.0240
  HTL2(04)         S005454          S005404          CONDUIT          923.1    0.0455    0.0240
  HTMC(10)         S011068          S011419          CONDUIT           65.7    0.0198    0.0140
  HTMC(05)         S005410          N34              CONDUIT          601.3    0.3326    0.0240
  UAL2(04)         S005452          S005028          CONDUIT            8.3    0.2289    0.0140
  UAL2(03)         S005028          S005453          CONDUIT           45.8    0.2249    0.0140
  UAL4-2(06)       S006457          S006458          CONDUIT           51.5    0.4466    0.0140
  UAL4-2(02)       S006119          S006118          CONDUIT           68.0    0.0588    0.0140
  UAL4(06)         S006409          S005420          CONDUIT           24.0    0.0583    0.0140
  UAL4-3(01)       S005456          S006440          CONDUIT          124.3    0.2574    0.0140
  UAL4(04)         S005421          S005423          CONDUIT           18.0    0.0556    0.0140
  UAL4-1(01)       S005016          S005427          CONDUIT           56.0    0.5000    0.0140
  UAL7(03)         S005036          S005037          CONDUIT           40.1    0.4165    0.0140
  UAL8(07)         S011004          S011005          CONDUIT           41.4    0.1715    0.0140
  UAL8(04)         S011015          S011418          CONDUIT           67.5    0.1704    0.0140
  UAMC(06)         S005435          S005407          CONDUIT           41.6    0.1226    0.0300
  UAL2(01)         S005429          S005407          CONDUIT          900.5    0.4221    0.0450
  UAMC(10)         S005413          S005434          CONDUIT          115.1    0.1425    0.0300
  UAL4-2(03)       S006459          S006119          CONDUIT          500.6    0.0599    0.0450
  UAL4-2(01)       S006118          S006409          CONDUIT          244.1    0.0598    0.0450
  UAL4(07)         S006440          S006409          CONDUIT          492.9    0.1656    0.0500
  UAL4(05)         S005420          S005421          CONDUIT           14.1    0.0638    0.0450
  UAL6(06)         S005078          S005408          CONDUIT          532.4    0.3154    0.0450
  UAL8(03)         S011418          S011429          CONDUIT          376.9    0.1711    0.0450
  UAL1(10)         S005425          S005424          CONDUIT          347.3    0.1468    0.0450
  UAL4(03)         S005423          S005427          CONDUIT          879.0    0.0598    0.0450
  UAMC(05)         S005407          S005436          CONDUIT         1117.8    0.1216    0.0300
  UAL1(03)         S005043          S005440          CONDUIT           20.3    0.0049    0.0450
  UAL4(02)         S005427          S005438          CONDUIT         1395.1    0.0597    0.0450
  UAL7(02)         S005037          S005426          CONDUIT          583.6    0.4152    0.0300
  UAL8(05)         S011405          S011015          CONDUIT         1222.0    0.1710    0.0450
  UAL8(06)         S011005          S011405          CONDUIT          263.5    0.1712    0.0450
  UAL4(08)         S006117          S006440          CONDUIT           24.1    0.1660    0.0350
  UAL5(05)         S005044          S005045          CONDUIT           28.8    0.2153    0.0140
  UAL6-4(04)       S005082          S005081          CONDUIT           40.2    0.1965    0.0140
  UAL1-1(02)       S005038a         S005451          CONDUIT           52.8    0.5493    0.0140
  UAL2(02)         S005453          S005429          CONDUIT           91.8    0.2266    0.0140
  UAL4-2(05)       S006458          S006400          CONDUIT           39.5    1.6205    0.0140
  UAL4-2(04)       S006400          S006459          CONDUIT           87.8    0.0592    0.0140
  UAL6(07)         S005079          S005078          CONDUIT           39.5    0.3165    0.0140
  UAL6-1(05)       S005056          S005058          CONDUIT           38.2    0.9032    0.0140
  UAL6-1(04)       S005058          S005062          CONDUIT          232.7    0.9025    0.0140
  UAL8(02)         S011429          S005417          CONDUIT          145.2    0.1708    0.0140
  UAMC(27)         S011424          S011425          CONDUIT          194.1    0.6079    0.0240
  UAL6(02)         S005445          S005446          CONDUIT          365.7    0.7449    0.0240
  UAL4(09)         S006106          S006117          CONDUIT          321.3    0.1656    0.0140
  UAL1-1(01)       S005451          S005458          CONDUIT           19.9    0.5377    0.0140
  UAMC(11)         S005414          S005413          CONDUIT          661.1    0.1426    0.0300
  UAL6-4(01)       S005431          S005411          CONDUIT           10.0    0.0100    0.0010
  UAL6-3(01)       S005430          S005411          CONDUIT          376.6    0.0003    0.0010
  UAL6-1(01)       S005441          S005411          CONDUIT           10.0    0.0100    0.0010
  UAMC(12)         S005412          S005414          CONDUIT          381.8    0.1425    0.0300
  UAL6(01)         S005446          S005412          CONDUIT           27.5    0.7455    0.0010
  UAL5(01)         S005447          S005412          CONDUIT           25.6   15.6977    0.0010
  UAMC(21)         S011439          S011441          CONDUIT          793.0   -0.3025    0.0300
  UAMC(02)         S005437          S005401          CONDUIT          122.3    0.0164    0.0010
  UAMC(13)         S005433          S005412          CONDUIT           27.0    0.1444    0.0300
  UAMC(15)         S005428          S005432          CONDUIT          451.2    0.0698    0.0300
  UAMC(17)         S005422          S005428          CONDUIT          753.4    0.0697    0.0300
  UAL8(01)         S005417          S005422          CONDUIT           28.8    0.9723    0.0450
  UAL1(01)         S005439          S005401          CONDUIT           10.0   51.8065    0.0010
  UAMC(20)         S011441          S005422          CONDUIT           59.8   -0.3027    0.0300
  UAL6(03)         S005411          S005445          CONDUIT           10.0    0.0100    0.0010
  UAL5(02)         S005051          S005447          CONDUIT          205.4    0.2162    0.0240
  UAL5(03)         S005046          S005051          CONDUIT          151.2    0.2169    0.0140
  UAL5(04)         S005045          S005046          CONDUIT           44.4    0.2162    0.0140
  UAL5-1(01)       S005047          S005046          CONDUIT           15.4    0.5000    0.0140
  UAL6(05)         S005408          S005073          CONDUIT          133.8    0.0942    0.0450
  UAL6(04)         S005073          S005411          CONDUIT           10.0    0.0100    0.0010
  UAMC(07)         S005434          S005435          CONDUIT           68.1   -1.2042    0.0140
  UAMC(04)         S005436          S005406          CONDUIT           32.3   -0.4830    0.0140
  UAMC(03)         S005406          S005437          CONDUIT           31.9   -0.4828    0.0140
  UAL1(02)         S005440          S005439          CONDUIT           59.3    0.3710    0.0140
  UAMC(14)         S005432          S005433          CONDUIT           67.3    1.5901    0.0140
  UAL1(04)         S005458          S005043          CONDUIT          284.5    0.1603    0.0140
  UAL1(07)         S005424          S005457          CONDUIT           30.4    0.1612    0.0140
  UAL1(05)         S005459          S005458          CONDUIT          176.6    0.1597    0.0140
  UAL1(06)         S005457          S005459          CONDUIT           64.3    0.1602    0.0140
  UAL7(01)         S005426          S005428          CONDUIT           57.3    0.4712    0.0140
  UAL6-4(03)       S005081          S005443          CONDUIT          340.2    0.1955    0.0140
  UAL3(03)         S005064          S005060          CONDUIT          277.4    0.2848    0.0140
  UAL3(04)         S005065          S005064          CONDUIT           61.8    0.2848    0.0140
  UAL3(02)         S005060          S005448          CONDUIT          276.7    1.1696    0.0140
  UAL6-4(02)       S005443          S005431          CONDUIT           18.4    0.1957    0.0140
  UAL6-3(02)       S005442          S005430          CONDUIT           45.4    2.0004    0.0140
  UAL6-1(03)       S005062          S005444          CONDUIT           96.1    0.9022    0.0140
  UAL6-1(02)       S005444          S005441          CONDUIT          120.6    0.9022    0.0140
  UAL4(01)         S005438          S005414          CONDUIT           51.1    3.0209    0.0140
  UAL1(12)         S005467          S005462          CONDUIT           70.7   -0.1740    0.0140
  UAL1(11)         S005462          S005425          CONDUIT          201.3   -0.1744    0.0140
  UAMC(22)         S025423          S011439          CONDUIT           58.5    0.2701    0.0240
  UAMC(23)         S011438          S025423          CONDUIT          359.0    0.2696    0.0240
  UAMC(24)         S025422          S011438          CONDUIT           65.3    0.2695    0.0240
  UAMC(25)         S011437          S025422          CONDUIT          103.1    0.2696    0.0240
  UAMC(26)         S011425          S011437          CONDUIT          622.5    0.6747    0.0140
  UAL3(01)         S005448          S005413          CONDUIT           26.9    0.0037    0.0450
  L112             S005401          N123             CONDUIT           10.0    0.0100    0.5000
  UAL6-5(03)       S024497          S027498          CONDUIT           65.7    0.4568    0.0140
  UAL6-5(02)       S027498          S005468          CONDUIT          287.0    2.1215    0.0450
  UAL6-5(01)       S005468          S005411          CONDUIT           10.0    2.1205    0.0010
  CHL1(01)         S006446          S006404          CONDUIT          145.5    3.1053    0.0140
  CHL1(02)         S006445          S006446          CONDUIT          475.5    0.5847    0.0140
  1511.1           S006412          S006413          CONDUIT          633.2    0.0343    0.0140
  1511.2           S006412          S006413          CONDUIT          633.2    0.0009    0.0140
  1512.1           S006411          S006412          CONDUIT          609.9    0.0607    0.0140
  1512.2           S006411          S006412          CONDUIT          609.9    0.0959    0.0140
  1513.1           S006456          S006411          CONDUIT           81.2    0.7269    0.0140
  1513.2           S006456          S006411          CONDUIT           81.2    0.0961    0.0140
  1514.1           S006455          S006456          CONDUIT           52.7    6.1966    0.0140
  1514.2           S006455          S006456          CONDUIT           52.7    0.0968    0.0140
  1515.1           S006472          S006455          CONDUIT          458.3    0.0336    0.0140
  1515.2           S006472          S006455          CONDUIT          458.3    0.0960    0.0140
  CHL2(13)         S006452          S006472          CONDUIT           17.0    0.0353    0.0450
  CHL2(14)         S006449          S006452          CONDUIT           63.3   -0.5533    0.0450
  CHL2(15)         S006466          S006449          CONDUIT           36.2    0.2983    0.0450
  1519.1           S006467          S006466          CONDUIT           70.4    0.2970    0.0240
  1519.2           S006467          S006466          CONDUIT           70.4    0.5003    0.0140
  CHL2(17)         S006468          S006467          CONDUIT          177.5    0.2980    0.0450
  1521.1           S006447          S006468          CONDUIT          303.6    0.0250    0.0240
  1521.2           S006447          S006468          CONDUIT          303.6    1.0002    0.0140
  1522.1           S006469          S006447          CONDUIT           30.9    0.0259    0.0240
  1522.2           S006469          S006447          CONDUIT           30.9    0.9988    0.0140
  CHL2(20)         S006470          S006469          CONDUIT          181.6    0.0661    0.0450
  CHL2(21)         S006471          S006470          CONDUIT           64.7    1.2060    0.0240
  CHL2-3(01)       S006453          S006452          CONDUIT          103.4    0.2844    0.0240
  CHL2-3(02)       S006464          S006453          CONDUIT         1329.2    0.2841    0.0450
  CHL2-3(03)       S006463          S006464          CONDUIT           80.0    0.8843    0.0140
  CHL2-3(04)       S006460          S006463          CONDUIT           22.9    0.8873    0.0140
  CHL2-4(01)       S006450          S006449          CONDUIT          101.8    0.8249    0.0240
  CHL2-5(01)       S006108          S006447          CONDUIT           90.4    1.4011    0.0240
  CHL2-5(02)       S006107          S006108          CONDUIT           52.9    1.4020    0.0240
  CHL3(12)         S010039          S010042          CONDUIT          131.7    0.5165    0.0140
  CHL3(13)         S010038          S010039          CONDUIT           92.0    0.5107    0.0140
  CHL3(14)         S010034          S010038          CONDUIT          250.2    0.2726    0.0140
  CHL3(15)         S010029          S010034          CONDUIT          245.7    0.2723    0.0140
  CHL3(16)         S010047          S010029          CONDUIT          322.4    0.2726    0.0140
  CHL3(20)         S010016          S010018          CONDUIT          289.6    0.0635    0.0140
  CHL3(21)         S010014          S010016          CONDUIT          260.1    0.1292    0.0140
  CHL3(22)         S010004          S010014          CONDUIT          295.8    0.1295    0.0140
  CHL3(23)         S010005          S010004          CONDUIT          175.0    0.1292    0.0140
  CHL3(24)         S009063          S010005          CONDUIT          118.9    0.1295    0.0140
  CHL3-1(07)       S009060          S009061          CONDUIT          594.8    0.3194    0.0140
  CHL3-1(08)       S009400          S009060          CONDUIT          667.6    0.1663    0.0140
  CHL3-1(09)       S009059          S009060          CONDUIT           35.3    0.5013    0.0140
  CHL3-2(01)       S010415          S010038          CONDUIT           81.6    0.9998    0.0140
  CHL4(04)         S006057          S006429          CONDUIT          652.8    0.2589    0.0140
  CHL4(05)         S006430          S006057          CONDUIT          525.3    0.2418    0.0140
  CHL4(06)         S006431          S006430          CONDUIT          709.4    0.2721    0.0140
  CHL5-3(02)       S006432          S006433          CONDUIT          305.7    0.4776    0.0140
  CHL6(01)         S010051          S010052          CONDUIT           40.8    0.9993    0.0140
  CHL7(01)         S010403          S010067          CONDUIT           58.5    0.3161    0.0140
  CHL7(02)         S010404          S010403          CONDUIT          348.8    0.3168    0.0140
  CHL7(03)         S010406          S010404          CONDUIT          293.4    0.3170    0.0140
  CHL8(01)         S010075          S010074          CONDUIT           40.8    1.0015    0.0140
  CHL9(01)         S010412          S010402          CONDUIT           87.0    0.1748    0.0140
  CHMC(02)         S006444          S006406          CONDUIT           42.5    0.3930    0.0140
  CHMC(03)         S006443          S006444          CONDUIT          166.1    0.3918    0.0140
  CHMC(04)         S006422          S006443          CONDUIT          216.3    0.3921    0.0140
  CHMC(05)         S006404          S006422          CONDUIT           70.7    0.0340    0.0140
  CHMC(06)         S006420          S006404          CONDUIT          369.2    0.0341    0.0140
  CHMC(14)         S010409          S010036          CONDUIT          518.5   -0.0577    0.0140
  CHMC(15)         S010408          S010409          CONDUIT          435.3   -0.0577    0.0140
  CHMC(16)         S010413          S010408          CONDUIT          175.4    0.5275    0.0140
  CHMC(17)         S010052          S010413          CONDUIT          146.5    0.5271    0.0140
  CHMC(18)         S010407          S010052          CONDUIT          205.3    0.5275    0.0140
  CHMC(19)         S010060          S010407          CONDUIT          299.5    0.1432    0.0140
  CHMC(20)         S010067          S010060          CONDUIT          294.1    0.1432    0.0140
  CHL3(10)         S010416          S010411          CONDUIT          260.0    0.3942    0.0140
  CHL3(11)         S010042          S010416          CONDUIT          245.2    0.3947    0.0140
  CHL3-1(05)       S010419          S010418          CONDUIT          227.3    0.3520    0.0140
  CHL3-1(06)       S009061          S010419          CONDUIT           91.3    0.6791    0.0140
  CHMC(21)         S010421          S010067          CONDUIT          112.7    0.2794    0.0140
[...]
  HPL1-1(03)              1.00   -nan(ind)  -nan(ind)  -nan(ind)  -nan(ind)  -nan(ind)  -nan(ind)  -nan(ind)  -nan(ind)  -nan(ind)
  HPL1-1(04)              1.00   -nan(ind)  -nan(ind)  -nan(ind)  -nan(ind)  -nan(ind)  -nan(ind)  -nan(ind)  -nan(ind)  -nan(ind)
  1763.1                  1.00   -nan(ind)  -nan(ind)  -nan(ind)  -nan(ind)  -nan(ind)  -nan(ind)  -nan(ind)  -nan(ind)  -nan(ind)
  1763.2                  1.00   -nan(ind)  -nan(ind)  -nan(ind)  -nan(ind)  -nan(ind)  -nan(ind)  -nan(ind)  -nan(ind)  -nan(ind)
  1765.1                  1.00   -nan(ind)  -nan(ind)  -nan(ind)  -nan(ind)  -nan(ind)  -nan(ind)  -nan(ind)  -nan(ind)  -nan(ind)
  1765.2                  1.00   -nan(ind)  -nan(ind)  -nan(ind)  -nan(ind)  -nan(ind)  -nan(ind)  -nan(ind)  -nan(ind)  -nan(ind)
  1767.1                  1.00   -nan(ind)  -nan(ind)  -nan(ind)  -nan(ind)  -nan(ind)  -nan(ind)  -nan(ind)  -nan(ind)  -nan(ind)
  1767.2                  1.00   -nan(ind)  -nan(ind)  -nan(ind)  -nan(ind)  -nan(ind)  -nan(ind)  -nan(ind)  -nan(ind)  -nan(ind)
  1769.1                  1.00   -nan(ind)  -nan(ind)  -nan(ind)  -nan(ind)  -nan(ind)  -nan(ind)  -nan(ind)  -nan(ind)  -nan(ind)
  1769.2                  1.00   -nan(ind)  -nan(ind)  -nan(ind)  -nan(ind)  -nan(ind)  -nan(ind)  -nan(ind)  -nan(ind)  -nan(ind)
  1770.1                  1.00   -nan(ind)  -nan(ind)  -nan(ind)  -nan(ind)  -nan(ind)  -nan(ind)  -nan(ind)  -nan(ind)  -nan(ind)
  1770.2                  1.00   -nan(ind)  -nan(ind)  -nan(ind)  -nan(ind)  -nan(ind)  -nan(ind)  -nan(ind)  -nan(ind)  -nan(ind)
  1772.1                  1.00   -nan(ind)  -nan(ind)  -nan(ind)  -nan(ind)  -nan(ind)  -nan(ind)  -nan(ind)  -nan(ind)  -nan(ind)
  1772.2                  1.00   -nan(ind)  -nan(ind)  -nan(ind)  -nan(ind)  -nan(ind)  -nan(ind)  -nan(ind)  -nan(ind)  -nan(ind)
  1773.1                  1.00   -nan(ind)  -nan(ind)  -nan(ind)  -nan(ind)  -nan(ind)  -nan(ind)  -nan(ind)  -nan(ind)  -nan(ind)
  1773.2                  1.00   -nan(ind)  -nan(ind)  -nan(ind)  -nan(ind)  -nan(ind)  -nan(ind)  -nan(ind)  -nan(ind)  -nan(ind)
  HPL13(06)               1.00   -nan(ind)  -nan(ind)  -nan(ind)  -nan(ind)  -nan(ind)  -nan(ind)  -nan(ind)  -nan(ind)  -nan(ind)
  HPL13-1(01)             1.00   -nan(ind)  -nan(ind)  -nan(ind)  -nan(ind)  -nan(ind)  -nan(ind)  -nan(ind)  -nan(ind)  -nan(ind)
  1780.1                  1.00   -nan(ind)  -nan(ind)  -nan(ind)  -nan(ind)  -nan(ind)  -nan(ind)  -nan(ind)  -nan(ind)  -nan(ind)
  1780.2                  1.00   -nan(ind)  -nan(ind)  -nan(ind)  -nan(ind)  -nan(ind)  -nan(ind)  -nan(ind)  -nan(ind)  -nan(ind)
  1781.1                  1.00   -nan(ind)  -nan(ind)  -nan(ind)  -nan(ind)  -nan(ind)  -nan(ind)  -nan(ind)  -nan(ind)  -nan(ind)
  1781.2                  1.00   -nan(ind)  -nan(ind)  -nan(ind)  -nan(ind)  -nan(ind)  -nan(ind)  -nan(ind)  -nan(ind)  -nan(ind)
  1783.1                  1.00   -nan(ind)  -nan(ind)  -nan(ind)  -nan(ind)  -nan(ind)  -nan(ind)  -nan(ind)  -nan(ind)  -nan(ind)
  1783.2                  1.00   -nan(ind)  -nan(ind)  -nan(ind)  -nan(ind)  -nan(ind)  -nan(ind)  -nan(ind)  -nan(ind)  -nan(ind)
  1784.1                  1.00   -nan(ind)  -nan(ind)  -nan(ind)  -nan(ind)  -nan(ind)  -nan(ind)  -nan(ind)  -nan(ind)  -nan(ind)
  1784.2                  1.00   -nan(ind)  -nan(ind)  -nan(ind)  -nan(ind)  -nan(ind)  -nan(ind)  -nan(ind)  -nan(ind)  -nan(ind)
  1785.1                  1.00   -nan(ind)  -nan(ind)  -nan(ind)  -nan(ind)  -nan(ind)  -nan(ind)  -nan(ind)  -nan(ind)  -nan(ind)
  1785.2                  1.00   -nan(ind)  -nan(ind)  -nan(ind)  -nan(ind)  -nan(ind)  -nan(ind)  -nan(ind)  -nan(ind)  -nan(ind)
  1786.1                  1.00   -nan(ind)  -nan(ind)  -nan(ind)  -nan(ind)  -nan(ind)  -nan(ind)  -nan(ind)  -nan(ind)  -nan(ind)
  1786.2                  1.00   -nan(ind)  -nan(ind)  -nan(ind)  -nan(ind)  -nan(ind)  -nan(ind)  -nan(ind)  -nan(ind)  -nan(ind)
  1787.1                  1.00   -nan(ind)  -nan(ind)  -nan(ind)  -nan(ind)  -nan(ind)  -nan(ind)  -nan(ind)  -nan(ind)  -nan(ind)
  1878.2                  1.00   -nan(ind)  -nan(ind)  -nan(ind)  -nan(ind)  -nan(ind)  -nan(ind)  -nan(ind)  -nan(ind)  -nan(ind)
  1788.1                  1.00   -nan(ind)  -nan(ind)  -nan(ind)  -nan(ind)  -nan(ind)  -nan(ind)  -nan(ind)  -nan(ind)  -nan(ind)
  1788.2                  1.00   -nan(ind)  -nan(ind)  -nan(ind)  -nan(ind)  -nan(ind)  -nan(ind)  -nan(ind)  -nan(ind)  -nan(ind)
  1789.1                  1.00   -nan(ind)  -nan(ind)  -nan(ind)  -nan(ind)  -nan(ind)  -nan(ind)  -nan(ind)  -nan(ind)  -nan(ind)
  1789.2                  1.00   -nan(ind)  -nan(ind)  -nan(ind)  -nan(ind)  -nan(ind)  -nan(ind)  -nan(ind)  -nan(ind)  -nan(ind)
  1790.1                  1.00   -nan(ind)  -nan(ind)  -nan(ind)  -nan(ind)  -nan(ind)  -nan(ind)  -nan(ind)  -nan(ind)  -nan(ind)
  1790.2                  1.00   -nan(ind)  -nan(ind)  -nan(ind)  -nan(ind)  -nan(ind)  -nan(ind)  -nan(ind)  -nan(ind)  -nan(ind)
  1791.1                  1.00   -nan(ind)  -nan(ind)  -nan(ind)  -nan(ind)  -nan(ind)  -nan(ind)  -nan(ind)  -nan(ind)  -nan(ind)
  1791.2                  1.00   -nan(ind)  -nan(ind)  -nan(ind)  -nan(ind)  -nan(ind)  -nan(ind)  -nan(ind)  -nan(ind)  -nan(ind)
  1792.1                  1.00   -nan(ind)  -nan(ind)  -nan(ind)  -nan(ind)  -nan(ind)  -nan(ind)  -nan(ind)  -nan(ind)  -nan(ind)
  1792.2                  1.00   -nan(ind)  -nan(ind)  -nan(ind)  -nan(ind)  -nan(ind)  -nan(ind)  -nan(ind)  -nan(ind)  -nan(ind)
  1793.1                  1.00   -nan(ind)  -nan(ind)  -nan(ind)  -nan(ind)  -nan(ind)  -nan(ind)  -nan(ind)  -nan(ind)  -nan(ind)
  1793.2                  1.00   -nan(ind)  -nan(ind)  -nan(ind)  -nan(ind)  -nan(ind)  -nan(ind)  -nan(ind)  -nan(ind)  -nan(ind)
  1794.1                  1.00   -nan(ind)  -nan(ind)  -nan(ind)  -nan(ind)  -nan(ind)  -nan(ind)  -nan(ind)  -nan(ind)  -nan(ind)
  1794.2                  1.00   -nan(ind)  -nan(ind)  -nan(ind)  -nan(ind)  -nan(ind)  -nan(ind)  -nan(ind)  -nan(ind)  -nan(ind)
  1795.1                  1.00   -nan(ind)  -nan(ind)  -nan(ind)  -nan(ind)  -nan(ind)  -nan(ind)  -nan(ind)  -nan(ind)  -nan(ind)
  1795.2                  1.00   -nan(ind)  -nan(ind)  -nan(ind)  -nan(ind)  -nan(ind)  -nan(ind)  -nan(ind)  -nan(ind)  -nan(ind)
  1796.1                  1.00   -nan(ind)  -nan(ind)  -nan(ind)  -nan(ind)  -nan(ind)  -nan(ind)  -nan(ind)  -nan(ind)  -nan(ind)
  1796.2                  1.00   -nan(ind)  -nan(ind)  -nan(ind)  -nan(ind)  -nan(ind)  -nan(ind)  -nan(ind)  -nan(ind)  -nan(ind)
  HPL9(01)                1.00   -nan(ind)  -nan(ind)  -nan(ind)  -nan(ind)  -nan(ind)  -nan(ind)  -nan(ind)  -nan(ind)  -nan(ind)
  HPL9(02)                1.00   -nan(ind)  -nan(ind)  -nan(ind)  -nan(ind)  -nan(ind)  -nan(ind)  -nan(ind)  -nan(ind)  -nan(ind)
  1802.1                  1.00   -nan(ind)  -nan(ind)  -nan(ind)  -nan(ind)  -nan(ind)  -nan(ind)  -nan(ind)  -nan(ind)  -nan(ind)
  1802.2                  1.00   -nan(ind)  -nan(ind)  -nan(ind)  -nan(ind)  -nan(ind)  -nan(ind)  -nan(ind)  -nan(ind)  -nan(ind)
  1803.1                  1.00   -nan(ind)  -nan(ind)  -nan(ind)  -nan(ind)  -nan(ind)  -nan(ind)  -nan(ind)  -nan(ind)  -nan(ind)
  1803.2                  1.00   -nan(ind)  -nan(ind)  -nan(ind)  -nan(ind)  -nan(ind)  -nan(ind)  -nan(ind)  -nan(ind)  -nan(ind)
  1804.1                  1.00   -nan(ind)  -nan(ind)  -nan(ind)  -nan(ind)  -nan(ind)  -nan(ind)  -nan(ind)  -nan(ind)  -nan(ind)
  1804.2                  1.00   -nan(ind)  -nan(ind)  -nan(ind)  -nan(ind)  -nan(ind)  -nan(ind)  -nan(ind)  -nan(ind)  -nan(ind)
  1805.1                  1.00   -nan(ind)  -nan(ind)  -nan(ind)  -nan(ind)  -nan(ind)  -nan(ind)  -nan(ind)  -nan(ind)  -nan(ind)
  1805.2                  1.00   -nan(ind)  -nan(ind)  -nan(ind)  -nan(ind)  -nan(ind)  -nan(ind)  -nan(ind)  -nan(ind)  -nan(ind)
  1806.1                  1.00   -nan(ind)  -nan(ind)  -nan(ind)  -nan(ind)  -nan(ind)  -nan(ind)  -nan(ind)  -nan(ind)  -nan(ind)
  1806.2                  1.00   -nan(ind)  -nan(ind)  -nan(ind)  -nan(ind)  -nan(ind)  -nan(ind)  -nan(ind)  -nan(ind)  -nan(ind)
  1807.1                  1.00   -nan(ind)  -nan(ind)  -nan(ind)  -nan(ind)  -nan(ind)  -nan(ind)  -nan(ind)  -nan(ind)  -nan(ind)
  1807.2                  1.00   -nan(ind)  -nan(ind)  -nan(ind)  -nan(ind)  -nan(ind)  -nan(ind)  -nan(ind)  -nan(ind)  -nan(ind)
  HPMC(06a)               1.00   -nan(ind)  -nan(ind)  -nan(ind)  -nan(ind)  -nan(ind)  -nan(ind)  -nan(ind)  -nan(ind)  -nan(ind)
  HPMC(07)                1.00   -nan(ind)  -nan(ind)  -nan(ind)  -nan(ind)  -nan(ind)  -nan(ind)  -nan(ind)  -nan(ind)  -nan(ind)
  1810.1                  1.00   -nan(ind)  -nan(ind)  -nan(ind)  -nan(ind)  -nan(ind)  -nan(ind)  -nan(ind)  -nan(ind)  -nan(ind)
  1810.2                  1.00   -nan(ind)  -nan(ind)  -nan(ind)  -nan(ind)  -nan(ind)  -nan(ind)  -nan(ind)  -nan(ind)  -nan(ind)
  HPMC(09)                1.00   -nan(ind)  -nan(ind)  -nan(ind)  -nan(ind)  -nan(ind)  -nan(ind)  -nan(ind)  -nan(ind)  -nan(ind)
  HPMC(11)                1.00   -nan(ind)  -nan(ind)  -nan(ind)  -nan(ind)  -nan(ind)  -nan(ind)  -nan(ind)  -nan(ind)  -nan(ind)
  1813.1                  1.00   -nan(ind)  -nan(ind)  -nan(ind)  -nan(ind)  -nan(ind)  -nan(ind)  -nan(ind)  -nan(ind)  -nan(ind)
  1813.2                  1.00   -nan(ind)  -nan(ind)  -nan(ind)  -nan(ind)  -nan(ind)  -nan(ind)  -nan(ind)  -nan(ind)  -nan(ind)
  1814.1                  1.00   -nan(ind)  -nan(ind)  -nan(ind)  -nan(ind)  -nan(ind)  -nan(ind)  -nan(ind)  -nan(ind)  -nan(ind)
  1814.2                  1.00   -nan(ind)  -nan(ind)  -nan(ind)  -nan(ind)  -nan(ind)  -nan(ind)  -nan(ind)  -nan(ind)  -nan(ind)
  HPMC(14)                1.00   -nan(ind)  -nan(ind)  -nan(ind)  -nan(ind)  -nan(ind)  -nan(ind)  -nan(ind)  -nan(ind)  -nan(ind)
  1816.1                  1.00   -nan(ind)  -nan(ind)  -nan(ind)  -nan(ind)  -nan(ind)  -nan(ind)  -nan(ind)  -nan(ind)  -nan(ind)
  1816.2                  1.00   -nan(ind)  -nan(ind)  -nan(ind)  -nan(ind)  -nan(ind)  -nan(ind)  -nan(ind)  -nan(ind)  -nan(ind)
  1817.1                  1.00   -nan(ind)  -nan(ind)  -nan(ind)  -nan(ind)  -nan(ind)  -nan(ind)  -nan(ind)  -nan(ind)  -nan(ind)
  1817.2                  1.00   -nan(ind)  -nan(ind)  -nan(ind)  -nan(ind)  -nan(ind)  -nan(ind)  -nan(ind)  -nan(ind)  -nan(ind)
  1818.1                  1.00   -nan(ind)  -nan(ind)  -nan(ind)  -nan(ind)  -nan(ind)  -nan(ind)  -nan(ind)  -nan(ind)  -nan(ind)
  1818.2                  1.00   -nan(ind)  -nan(ind)  -nan(ind)  -nan(ind)  -nan(ind)  -nan(ind)  -nan(ind)  -nan(ind)  -nan(ind)
  1819.1                  1.00   -nan(ind)  -nan(ind)  -nan(ind)  -nan(ind)  -nan(ind)  -nan(ind)  -nan(ind)  -nan(ind)  -nan(ind)
  1819.2                  1.00   -nan(ind)  -nan(ind)  -nan(ind)  -nan(ind)  -nan(ind)  -nan(ind)  -nan(ind)  -nan(ind)  -nan(ind)
  1820.1                  1.00   -nan(ind)  -nan(ind)  -nan(ind)  -nan(ind)  -nan(ind)  -nan(ind)  -nan(ind)  -nan(ind)  -nan(ind)
  1820.2                  1.00   -nan(ind)  -nan(ind)  -nan(ind)  -nan(ind)  -nan(ind)  -nan(ind)  -nan(ind)  -nan(ind)  -nan(ind)
  1821.1                  1.00   -nan(ind)  -nan(ind)  -nan(ind)  -nan(ind)  -nan(ind)  -nan(ind)  -nan(ind)  -nan(ind)  -nan(ind)
  1821.2                  1.00   -nan(ind)  -nan(ind)  -nan(ind)  -nan(ind)  -nan(ind)  -nan(ind)  -nan(ind)  -nan(ind)  -nan(ind)
  1822.1                  1.00   -nan(ind)  -nan(ind)  -nan(ind)  -nan(ind)  -nan(ind)  -nan(ind)  -nan(ind)  -nan(ind)  -nan(ind)
  1822.2                  1.00   -nan(ind)  -nan(ind)  -nan(ind)  -nan(ind)  -nan(ind)  -nan(ind)  -nan(ind)  -nan(ind)  -nan(ind)
  1823.1                  1.00   -nan(ind)  -nan(ind)  -nan(ind)  -nan(ind)  -nan(ind)  -nan(ind)  -nan(ind)  -nan(ind)  -nan(ind)
  1823.2                  1.00   -nan(ind)  -nan(ind)  -nan(ind)  -nan(ind)  -nan(ind)  -nan(ind)  -nan(ind)  -nan(ind)  -nan(ind)
  1824.1                  1.00   -nan(ind)  -nan(ind)  -nan(ind)  -nan(ind)  -nan(ind)  -nan(ind)  -nan(ind)  -nan(ind)  -nan(ind)
  1824.2                  1.00   -nan(ind)  -nan(ind)  -nan(ind)  -nan(ind)  -nan(ind)  -nan(ind)  -nan(ind)  -nan(ind)  -nan(ind)
  1825.1                  1.00   -nan(ind)  -nan(ind)  -nan(ind)  -nan(ind)  -nan(ind)  -nan(ind)  -nan(ind)  -nan(ind)  -nan(ind)
  1826.1                  1.00   -nan(ind)  -nan(ind)  -nan(ind)  -nan(ind)  -nan(ind)  -nan(ind)  -nan(ind)  -nan(ind)  -nan(ind)
  1827.1                  1.00   -nan(ind)  -nan(ind)  -nan(ind)  -nan(ind)  -nan(ind)  -nan(ind)  -nan(ind)  -nan(ind)  -nan(ind)
  1827.2                  1.00   -nan(ind)  -nan(ind)  -nan(ind)  -nan(ind)  -nan(ind)  -nan(ind)  -nan(ind)  -nan(ind)  -nan(ind)
  1828.1                  1.00   -nan(ind)  -nan(ind)  -nan(ind)  -nan(ind)  -nan(ind)  -nan(ind)  -nan(ind)  -nan(ind)  -nan(ind)
  1828.2                  1.00   -nan(ind)  -nan(ind)  -nan(ind)  -nan(ind)  -nan(ind)  -nan(ind)  -nan(ind)  -nan(ind)  -nan(ind)
  1829.1                  1.00   -nan(ind)  -nan(ind)  -nan(ind)  -nan(ind)  -nan(ind)  -nan(ind)  -nan(ind)  -nan(ind)  -nan(ind)
  1829.2                  1.00   -nan(ind)  -nan(ind)  -nan(ind)  -nan(ind)  -nan(ind)  -nan(ind)  -nan(ind)  -nan(ind)  -nan(ind)
  1830.1                  1.00   -nan(ind)  -nan(ind)  -nan(ind)  -nan(ind)  -nan(ind)  -nan(ind)  -nan(ind)  -nan(ind)  -nan(ind)
  1830.2                  1.00   -nan(ind)  -nan(ind)  -nan(ind)  -nan(ind)  -nan(ind)  -nan(ind)  -nan(ind)  -nan(ind)  -nan(ind)
  1831.1                  1.00   -nan(ind)  -nan(ind)  -nan(ind)  -nan(ind)  -nan(ind)  -nan(ind)  -nan(ind)  -nan(ind)  -nan(ind)
  1831.2                  1.00   -nan(ind)  -nan(ind)  -nan(ind)  -nan(ind)  -nan(ind)  -nan(ind)  -nan(ind)  -nan(ind)  -nan(ind)
  1832.1                  1.00   -nan(ind)  -nan(ind)  -nan(ind)  -nan(ind)  -nan(ind)  -nan(ind)  -nan(ind)  -nan(ind)  -nan(ind)
  1832.2                  1.00   -nan(ind)  -nan(ind)  -nan(ind)  -nan(ind)  -nan(ind)  -nan(ind)  -nan(ind)  -nan(ind)  -nan(ind)
  1833.1                  1.00   -nan(ind)  -nan(ind)  -nan(ind)  -nan(ind)  -nan(ind)  -nan(ind)  -nan(ind)  -nan(ind)  -nan(ind)
  1833.2                  1.00   -nan(ind)  -nan(ind)  -nan(ind)  -nan(ind)  -nan(ind)  -nan(ind)  -nan(ind)  -nan(ind)  -nan(ind)
  1834.1                  1.00   -nan(ind)  -nan(ind)  -nan(ind)  -nan(ind)  -nan(ind)  -nan(ind)  -nan(ind)  -nan(ind)  -nan(ind)
  1834.2                  1.00   -nan(ind)  -nan(ind)  -nan(ind)  -nan(ind)  -nan(ind)  -nan(ind)  -nan(ind)  -nan(ind)  -nan(ind)
  1835.1                  1.00   -nan(ind)  -nan(ind)  -nan(ind)  -nan(ind)  -nan(ind)  -nan(ind)  -nan(ind)  -nan(ind)  -nan(ind)
  1835.2                  1.00   -nan(ind)  -nan(ind)  -nan(ind)  -nan(ind)  -nan(ind)  -nan(ind)  -nan(ind)  -nan(ind)  -nan(ind)
  1836.1                  1.00   -nan(ind)  -nan(ind)  -nan(ind)  -nan(ind)  -nan(ind)  -nan(ind)  -nan(ind)  -nan(ind)  -nan(ind)
  1836.2                  1.00   -nan(ind)  -nan(ind)  -nan(ind)  -nan(ind)  -nan(ind)  -nan(ind)  -nan(ind)  -nan(ind)  -nan(ind)
  HPL1(04a)               1.00   -nan(ind)  -nan(ind)  -nan(ind)  -nan(ind)  -nan(ind)  -nan(ind)  -nan(ind)  -nan(ind)  -nan(ind)
  1838.1                  1.00   -nan(ind)  -nan(ind)  -nan(ind)  -nan(ind)  -nan(ind)  -nan(ind)  -nan(ind)  -nan(ind)  -nan(ind)
  1838.2                  1.00   -nan(ind)  -nan(ind)  -nan(ind)  -nan(ind)  -nan(ind)  -nan(ind)  -nan(ind)  -nan(ind)  -nan(ind)
  1839.1                  1.00   -nan(ind)  -nan(ind)  -nan(ind)  -nan(ind)  -nan(ind)  -nan(ind)  -nan(ind)  -nan(ind)  -nan(ind)
  1839.2                  1.00   -nan(ind)  -nan(ind)  -nan(ind)  -nan(ind)  -nan(ind)  -nan(ind)  -nan(ind)  -nan(ind)  -nan(ind)
  1840.1                  1.00   -nan(ind)  -nan(ind)  -nan(ind)  -nan(ind)  -nan(ind)  -nan(ind)  -nan(ind)  -nan(ind)  -nan(ind)
  1840.2                  1.00   -nan(ind)  -nan(ind)  -nan(ind)  -nan(ind)  -nan(ind)  -nan(ind)  -nan(ind)  -nan(ind)  -nan(ind)
  HPL1(08)                1.00   -nan(ind)  -nan(ind)  -nan(ind)  -nan(ind)  -nan(ind)  -nan(ind)  -nan(ind)  -nan(ind)  -nan(ind)
  HPL1(07)                1.00   -nan(ind)  -nan(ind)  -nan(ind)  -nan(ind)  -nan(ind)  -nan(ind)  -nan(ind)  -nan(ind)  -nan(ind)
  1845.1                  1.00   -nan(ind)  -nan(ind)  -nan(ind)  -nan(ind)  -nan(ind)  -nan(ind)  -nan(ind)  -nan(ind)  -nan(ind)
  1845.2                  1.00   -nan(ind)  -nan(ind)  -nan(ind)  -nan(ind)  -nan(ind)  -nan(ind)  -nan(ind)  -nan(ind)  -nan(ind)
  1847.1                  1.00   -nan(ind)  -nan(ind)  -nan(ind)  -nan(ind)  -nan(ind)  -nan(ind)  -nan(ind)  -nan(ind)  -nan(ind)
  1847.2                  1.00   -nan(ind)  -nan(ind)  -nan(ind)  -nan(ind)  -nan(ind)  -nan(ind)  -nan(ind)  -nan(ind)  -nan(ind)
  HTL5(02)                1.00   -nan(ind)  -nan(ind)  -nan(ind)  -nan(ind)  -nan(ind)  -nan(ind)  -nan(ind)  -nan(ind)  -nan(ind)
  HTMC(08)                1.00   -nan(ind)  -nan(ind)  -nan(ind)  -nan(ind)  -nan(ind)  -nan(ind)  -nan(ind)  -nan(ind)  -nan(ind)
  CHL3(17)                1.00   -nan(ind)  -nan(ind)  -nan(ind)  -nan(ind)  -nan(ind)  -nan(ind)  -nan(ind)  -nan(ind)  -nan(ind)
  1858.1                  1.00   -nan(ind)  -nan(ind)  -nan(ind)  -nan(ind)  -nan(ind)  -nan(ind)  -nan(ind)  -nan(ind)  -nan(ind)
  1858.2                  1.00   -nan(ind)  -nan(ind)  -nan(ind)  -nan(ind)  -nan(ind)  -nan(ind)  -nan(ind)  -nan(ind)  -nan(ind)
  HPL1(14)                1.00   -nan(ind)  -nan(ind)  -nan(ind)  -nan(ind)  -nan(ind)  -nan(ind)  -nan(ind)  -nan(ind)  -nan(ind)
  1862.1                  1.00   -nan(ind)  -nan(ind)  -nan(ind)  -nan(ind)  -nan(ind)  -nan(ind)  -nan(ind)  -nan(ind)  -nan(ind)
  1862.2                  1.00   -nan(ind)  -nan(ind)  -nan(ind)  -nan(ind)  -nan(ind)  -nan(ind)  -nan(ind)  -nan(ind)  -nan(ind)
  CHL3(06)                1.00   -nan(ind)  -nan(ind)  -nan(ind)  -nan(ind)  -nan(ind)  -nan(ind)  -nan(ind)  -nan(ind)  -nan(ind)
  BRMC(08)                1.00   -nan(ind)  -nan(ind)  -nan(ind)  -nan(ind)  -nan(ind)  -nan(ind)  -nan(ind)  -nan(ind)  -nan(ind)
  BRMC(05)                1.00   -nan(ind)  -nan(ind)  -nan(ind)  -nan(ind)  -nan(ind)  -nan(ind)  -nan(ind)  -nan(ind)  -nan(ind)
  BRMC(09)                1.00   -nan(ind)  -nan(ind)  -nan(ind)  -nan(ind)  -nan(ind)  -nan(ind)  -nan(ind)  -nan(ind)  -nan(ind)
  BRL2(01)                1.00   -nan(ind)  -nan(ind)  -nan(ind)  -nan(ind)  -nan(ind)  -nan(ind)  -nan(ind)  -nan(ind)  -nan(ind)
  BRMC(07)                1.00   -nan(ind)  -nan(ind)  -nan(ind)  -nan(ind)  -nan(ind)  -nan(ind)  -nan(ind)  -nan(ind)  -nan(ind)
  BRMC(06)                1.00   -nan(ind)  -nan(ind)  -nan(ind)  -nan(ind)  -nan(ind)  -nan(ind)  -nan(ind)  -nan(ind)  -nan(ind)
  BRMC(04)                1.00   -nan(ind)  -nan(ind)  -nan(ind)  -nan(ind)  -nan(ind)  -nan(ind)  -nan(ind)  -nan(ind)  -nan(ind)
  BRMC(02)                1.00   -nan(ind)  -nan(ind)  -nan(ind)  -nan(ind)  -nan(ind)  -nan(ind)  -nan(ind)  -nan(ind)  -nan(ind)
  BRMC(01)                1.00   -nan(ind)  -nan(ind)  -nan(ind)  -nan(ind)  -nan(ind)  -nan(ind)  -nan(ind)  -nan(ind)  -nan(ind)
  BRMC(03)                1.00   -nan(ind)  -nan(ind)  -nan(ind)  -nan(ind)  -nan(ind)  -nan(ind)  -nan(ind)  -nan(ind)  -nan(ind)
  HPL10-1(00)             1.00   -nan(ind)  -nan(ind)  -nan(ind)  -nan(ind)  -nan(ind)  -nan(ind)  -nan(ind)  -nan(ind)  -nan(ind)
  HPMC(15a)               1.00   -nan(ind)  -nan(ind)  -nan(ind)  -nan(ind)  -nan(ind)  -nan(ind)  -nan(ind)  -nan(ind)  -nan(ind)
  HPMC(01a)               1.00   -nan(ind)  -nan(ind)  -nan(ind)  -nan(ind)  -nan(ind)  -nan(ind)  -nan(ind)  -nan(ind)  -nan(ind)
  
  
  *************************
  Conduit Surcharge Summary
  *************************
  
  No conduits were surcharged.
  

  Analysis begun on:  Sat Nov 30 08:11:47 2019
  Analysis ended on:  Sat Nov 30 08:11:47 2019
  Total elapsed time: < 1 sec