
  EPA STORM WATER MANAGEMENT MODEL - VERSION 5.1 (Build 5.1.013)
  --------------------------------------------------------------

    <<<<<<<< SWMM 4.3 EXTRAN DATA FILE >>>>>>>>> $EXTRAN 
  
  WARNING 04: minimum elevation drop used for Conduit 104
  
  *************
  Element Count
  *************
  Number of rain gages ...... 0
  Number of subcatchments ... 0
  Number of nodes ........... 11
  Number of links ........... 10
  Number of pollutants ...... 0
  Number of land uses ....... 0
  
  
  ************
  Node Summary
  ************
                                           Invert      Max.    Ponded    External
  Name                 Type                 Elev.     Depth      Area    Inflow  
  -------------------------------------------------------------------------------
  1000                 JUNCTION              0.13     10.00       0.0    Yes
  1001                 JUNCTION             -0.50     10.00       0.0
  1002                 JUNCTION             -0.84     10.00       0.0
  1003                 JUNCTION             -1.18     10.00       0.0
  1004                 JUNCTION             -1.48     10.00       0.0
  1005                 JUNCTION             -1.48     15.00       0.0
  1006                 JUNCTION             -1.77     15.00       0.0
  1007                 JUNCTION             -2.04     15.00       0.0
  1008                 JUNCTION             -2.36     15.00       0.0
  1009                 JUNCTION             -2.72     15.00       0.0
  1010                 OUTFALL              -3.04     15.00       0.0
  
  
  ************
  Link Summary
  ************
  Name             From Node        To Node          Type            Length    %Slope Roughness
  ---------------------------------------------------------------------------------------------
  100              1000             1001             CONDUIT          632.6    0.0996    0.0160
  101              1001             1002             CONDUIT          545.4    0.0623    0.0160
  102              1002             1003             CONDUIT          645.0    0.0527    0.0160
  103              1003             1004             CONDUIT          646.8    0.0464    0.0160
  104              1004             1005             CONDUIT          556.1    0.0001    0.0160
  105              1005             1006             CONDUIT          554.8    0.0523    0.0160
  106              1006             1007             CONDUIT          505.0    0.0535    0.0160
  107              1007             1008             CONDUIT          603.6    0.0530    0.0160
  108              1008             1009             CONDUIT          671.4    0.0536    0.0160
  109              1009             1010             CONDUIT          573.0    0.0558    0.0160
  
  
  *********************
  Cross Section Summary
  *********************
                                        Full     Full     Hyd.     Max.   No. of     Full
  Conduit          Shape               Depth     Area     Rad.    Width  Barrels     Flow
  ---------------------------------------------------------------------------------------
  100              TRAPEZOIDAL         10.00   318.00     5.63    51.80        1  1984.39
  101              TRAPEZOIDAL         10.00   347.00     5.84    54.70        1  1756.26
  102              TRAPEZOIDAL         10.00   377.00     6.04    57.70        1  1794.42
  103              TRAPEZOIDAL         10.00   411.00     6.24    61.10        1  1876.23
  104              TRAPEZOIDAL         10.00   456.00     6.48    65.60        1    73.38
  105              TRAPEZOIDAL         15.00   919.50     9.35    91.30        1  5830.76
  106              TRAPEZOIDAL         15.00  1009.50     9.67    97.30        1  6623.41
  107              TRAPEZOIDAL         15.00  1098.00     9.96   103.20        1  7313.97
  108              TRAPEZOIDAL         15.00  1188.00    10.22   109.20        1  8096.52
  109              TRAPEZOIDAL         15.00  1278.00    10.45   115.20        1  9024.56
  
  
  
  *********************************************************
  NOTE: The summary statistics displayed in this report are
  based on results found at every computational time step,  
  not just on results from each reporting time step.
  *********************************************************
  
  ****************
  Analysis Options
  ****************
  Flow Units ............... CMS
  Process Models:
    Rainfall/Runoff ........ NO
    RDII ................... NO
    Snowmelt ............... NO
    Groundwater ............ NO
    Flow Routing ........... YES
    Ponding Allowed ........ NO
    Water Quality .......... NO
  Flow Routing Method ...... DYNWAVE
  Surcharge Method ......... EXTRAN
  Starting Date ............ 01/01/1994 00:00:00
  Ending Date .............. 01/07/1994 00:00:00
  Antecedent Dry Days ...... 0.0
  Report Time Step ......... 00:50:00
  Routing Time Step ........ 10.00 sec
  Variable Time Step ....... YES
  Maximum Trials ........... 8
  Number of Threads ........ 1
  Head Tolerance ........... 0.001524 m
  
  
  **************************        Volume        Volume
  Flow Routing Continuity        hectare-m      10^6 ltr
  **************************     ---------     ---------
  Dry Weather Inflow .......         0.000         0.000
  Wet Weather Inflow .......         0.000         0.000
  Groundwater Inflow .......         0.000         0.000
  RDII Inflow ..............         0.000         0.000
  External Inflow ..........         0.000         0.000
  External Outflow .........         0.000         0.000
  Flooding Loss ............         0.000         0.000
  Evaporation Loss .........         0.000         0.000
  Exfiltration Loss ........         0.000         0.000
  Initial Stored Volume ....        21.750       217.501
  Final Stored Volume ......        21.750       217.501
  Continuity Error (%) .....         0.000
  
  
  ***************************
  Time-Step Critical Elements
  ***************************
  None
  
  
  ********************************
  Highest Flow Instability Indexes
  ********************************
  All links are stable.
  
  
  ******************
  Node Depth Summary
  ******************
  
  ---------------------------------------------------------------------------------
                                 Average  Maximum  Maximum  Time of Max    Reported
                                   Depth    Depth      HGL   Occurrence   Max Depth
  Node                 Type       Meters   Meters   Meters  days hr:min      Meters
  ---------------------------------------------------------------------------------
  1000                 JUNCTION  -nan(ind)     0.00     0.13     0  00:00        0.00
  1001                 JUNCTION  -nan(ind)     0.00    -0.50     0  00:00        0.00
  1002                 JUNCTION  -nan(ind)     0.00    -0.84     0  00:00        0.00
  1003                 JUNCTION  -nan(ind)     0.00    -1.18     0  00:00        0.00
  1004                 JUNCTION  -nan(ind)     0.00    -1.48     0  00:00        0.00
  1005                 JUNCTION  -nan(ind)     0.00    -1.48     0  00:00        0.00
  1006                 JUNCTION  -nan(ind)     0.00    -1.77     0  00:00        0.00
  1007                 JUNCTION  -nan(ind)     0.00    -2.04     0  00:00        0.00
  1008                 JUNCTION  -nan(ind)     0.00    -2.36     0  00:00        0.00
  1009                 JUNCTION  -nan(ind)     0.00    -2.72     0  00:00        0.00
  1010                 OUTFALL   -nan(ind)     0.00    -3.04     0  00:00        0.00
  
  
  *******************
  Node Inflow Summary
  *******************
  
  -------------------------------------------------------------------------------------------------
                                  Maximum  Maximum                  Lateral       Total        Flow
                                  Lateral    Total  Time of Max      Inflow      Inflow     Balance
                                   Inflow   Inflow   Occurrence      Volume      Volume       Error
  Node                 Type           CMS      CMS  days hr:min    10^6 ltr    10^6 ltr     Percent
  -------------------------------------------------------------------------------------------------
  1000                 JUNCTION     0.000    0.000     0  00:00           0           0       0.000 ltr
  1001                 JUNCTION     0.000    0.000     0  00:00           0           0       0.000 ltr
  1002                 JUNCTION     0.000    0.000     0  00:00           0           0       0.000 ltr
  1003                 JUNCTION     0.000    0.000     0  00:00           0           0       0.000 ltr
  1004                 JUNCTION     0.000    0.000     0  00:00           0           0       0.000 ltr
  1005                 JUNCTION     0.000    0.000     0  00:00           0           0       0.000 ltr
  1006                 JUNCTION     0.000    0.000     0  00:00           0           0       0.000 ltr
  1007                 JUNCTION     0.000    0.000     0  00:00           0           0       0.000 ltr
  1008                 JUNCTION     0.000    0.000     0  00:00           0           0       0.000 ltr
  1009                 JUNCTION     0.000    0.000     0  00:00           0           0       0.000 ltr
  1010                 OUTFALL      0.000    0.000     0  00:00           0           0       0.000 ltr
  
  
  **********************
  Node Surcharge Summary
  **********************
  
  No nodes were surcharged.
  
  
  *********************
  Node Flooding Summary
  *********************
  
  No nodes were flooded.
  
  
  ***********************
  Outfall Loading Summary
  ***********************
  
  -----------------------------------------------------------
                         Flow       Avg       Max       Total
                         Freq      Flow      Flow      Volume
  Outfall Node           Pcnt       CMS       CMS    10^6 ltr
  -----------------------------------------------------------
  1010                -nan(ind)     0.000     0.000       0.000
  -----------------------------------------------------------
  System              -nan(ind)     0.000     0.000       0.000
  
  
  ********************
  Link Flow Summary
  ********************
  
  -----------------------------------------------------------------------------
                                 Maximum  Time of Max   Maximum    Max/    Max/
                                  |Flow|   Occurrence   |Veloc|    Full    Full
  Link                 Type          CMS  days hr:min     m/sec    Flow   Depth
  -----------------------------------------------------------------------------
  100                  CONDUIT     0.000     0  00:00      0.00    0.00    0.00
  101                  CONDUIT     0.000     0  00:00      0.00    0.00    0.00
  102                  CONDUIT     0.000     0  00:00      0.00    0.00    0.00
  103                  CONDUIT     0.000     0  00:00      0.00    0.00    0.00
  104                  CONDUIT     0.000     0  00:00      0.00    0.00    0.00
  105                  CONDUIT     0.000     0  00:00      0.00    0.00    0.00
  106                  CONDUIT     0.000     0  00:00      0.00    0.00    0.00
  107                  CONDUIT     0.000     0  00:00      0.00    0.00    0.00
  108                  CONDUIT     0.000     0  00:00      0.00    0.00    0.00
  109                  CONDUIT     0.000     0  00:00      0.00    0.00    0.00
  
  
  ***************************
  Flow Classification Summary
  ***************************
  
  -------------------------------------------------------------------------------------
                      Adjusted    ---------- Fraction of Time in Flow Class ---------- 
                       /Actual         Up    Down  Sub   Sup   Up    Down  Norm  Inlet 
  Conduit               Length    Dry  Dry   Dry   Crit  Crit  Crit  Crit  Ltd   Ctrl  
  -------------------------------------------------------------------------------------
  100                     1.00   -nan(ind)  -nan(ind)  -nan(ind)  -nan(ind)  -nan(ind)  -nan(ind)  -nan(ind)  -nan(ind)  -nan(ind)
  101                     1.00   -nan(ind)  -nan(ind)  -nan(ind)  -nan(ind)  -nan(ind)  -nan(ind)  -nan(ind)  -nan(ind)  -nan(ind)
  102                     1.00   -nan(ind)  -nan(ind)  -nan(ind)  -nan(ind)  -nan(ind)  -nan(ind)  -nan(ind)  -nan(ind)  -nan(ind)
  103                     1.00   -nan(ind)  -nan(ind)  -nan(ind)  -nan(ind)  -nan(ind)  -nan(ind)  -nan(ind)  -nan(ind)  -nan(ind)
  104                     1.00   -nan(ind)  -nan(ind)  -nan(ind)  -nan(ind)  -nan(ind)  -nan(ind)  -nan(ind)  -nan(ind)  -nan(ind)
  105                     1.00   -nan(ind)  -nan(ind)  -nan(ind)  -nan(ind)  -nan(ind)  -nan(ind)  -nan(ind)  -nan(ind)  -nan(ind)
  106                     1.00   -nan(ind)  -nan(ind)  -nan(ind)  -nan(ind)  -nan(ind)  -nan(ind)  -nan(ind)  -nan(ind)  -nan(ind)
  107                     1.00   -nan(ind)  -nan(ind)  -nan(ind)  -nan(ind)  -nan(ind)  -nan(ind)  -nan(ind)  -nan(ind)  -nan(ind)
  108                     1.00   -nan(ind)  -nan(ind)  -nan(ind)  -nan(ind)  -nan(ind)  -nan(ind)  -nan(ind)  -nan(ind)  -nan(ind)
  109                     1.00   -nan(ind)  -nan(ind)  -nan(ind)  -nan(ind)  -nan(ind)  -nan(ind)  -nan(ind)  -nan(ind)  -nan(ind)
  
  
  *************************
  Conduit Surcharge Summary
  *************************
  
  No conduits were surcharged.
  

  Analysis begun on:  Sat Nov 30 17:59:13 2019
  Analysis ended on:  Sat Nov 30 17:59:13 2019
  Total elapsed time: < 1 sec