
  EPA STORM WATER MANAGEMENT MODEL - VERSION 5.1 (Build 5.1.013)
  --------------------------------------------------------------

  
  *************
  Element Count
  *************
  Number of rain gages ...... 0
  Number of subcatchments ... 0
  Number of nodes ........... 10
  Number of links ........... 14
  Number of pollutants ...... 0
  Number of land uses ....... 0
  
  
  ************
  Node Summary
  ************
                                           Invert      Max.    Ponded    External
  Name                 Type                 Elev.     Depth      Area    Inflow  
  -------------------------------------------------------------------------------
  238                  JUNCTION              9.99     10.01       0.0
  240                  JUNCTION              9.98     10.02       0.0
  Outfall              OUTFALL               9.97      4.00       0.0
  Duckpond             STORAGE              10.00     10.00       0.0    Yes
  202                  STORAGE              10.00     10.00       0.0
  203                  STORAGE              10.00     10.00       0.0
  204                  STORAGE              10.00     10.00       0.0
  205                  STORAGE              10.00     10.00       0.0
  206                  STORAGE              10.00     10.00       0.0
  207                  STORAGE              10.00     10.00       0.0
  
  
  ************
  Link Summary
  ************
  Name             From Node        To Node          Type            Length    %Slope Roughness
  ---------------------------------------------------------------------------------------------
  239              206              238              CONDUIT          100.0    0.0100    0.0140
  241              238              240              CONDUIT          100.0    0.0100    0.0140
  243              240              Outfall          CONDUIT          100.0    0.0100    0.0140
  ORIF#1           Duckpond         202              ORIFICE     
  ORIF#2           202              205              ORIFICE     
  ORIF#3           205              Duckpond         ORIFICE     
  ORIF#4           202              207              ORIFICE     
  ORIF#5           207              203              ORIFICE     
  ORIF#6           203              204              ORIFICE     
  ORIF#7           204              206              ORIFICE     
  ORIF#8           206              203              ORIFICE     
  ORIF#9           203              202              ORIFICE     
  ORIF#10          205              207              ORIFICE     
  ORIF#11          207              206              ORIFICE     
  
  
  *********************
  Cross Section Summary
  *********************
                                        Full     Full     Hyd.     Max.   No. of     Full
  Conduit          Shape               Depth     Area     Rad.    Width  Barrels     Flow
  ---------------------------------------------------------------------------------------
  239              TRAPEZOIDAL          4.00    32.00     2.09    12.00        1    55.52
  241              TRAPEZOIDAL          4.00    32.00     2.09    12.00        1    55.52
  243              TRAPEZOIDAL          4.00    32.00     2.09    12.00        1    55.52
  
  
  
  *********************************************************
  NOTE: The summary statistics displayed in this report are
  based on results found at every computational time step,  
  not just on results from each reporting time step.
  *********************************************************
  
  ****************
  Analysis Options
  ****************
  Flow Units ............... CFS
  Process Models:
    Rainfall/Runoff ........ NO
    RDII ................... NO
    Snowmelt ............... NO
    Groundwater ............ NO
    Flow Routing ........... YES
    Ponding Allowed ........ NO
    Water Quality .......... NO
  Flow Routing Method ...... DYNWAVE
  Surcharge Method ......... EXTRAN
  Starting Date ............ 01/01/1996 00:00:00
  Ending Date .............. 01/01/1996 02:00:00
  Antecedent Dry Days ...... 0.0
  Report Time Step ......... 00:00:10
  Routing Time Step ........ 10.00 sec
  Variable Time Step ....... YES
  Maximum Trials ........... 8
  Number of Threads ........ 1
  Head Tolerance ........... 0.005000 ft
  
  
  **************************        Volume        Volume
  Flow Routing Continuity        acre-feet      10^6 gal
  **************************     ---------     ---------
  Dry Weather Inflow .......         0.000         0.000
  Wet Weather Inflow .......         0.000         0.000
  Groundwater Inflow .......         0.000         0.000
  RDII Inflow ..............         0.000         0.000
  External Inflow ..........         0.000         0.000
  External Outflow .........         0.000         0.000
  Flooding Loss ............         0.000         0.000
  Evaporation Loss .........         0.000         0.000
  Exfiltration Loss ........         0.000         0.000
  Initial Stored Volume ....         4.763         1.552
  Final Stored Volume ......         4.763         1.552
  Continuity Error (%) .....         0.000
  
  
  ***************************
  Time-Step Critical Elements
  ***************************
  None
  
  
  ********************************
  Highest Flow Instability Indexes
  ********************************
  All links are stable.
  
  
  ******************
  Node Depth Summary
  ******************
  
  ---------------------------------------------------------------------------------
                                 Average  Maximum  Maximum  Time of Max    Reported
                                   Depth    Depth      HGL   Occurrence   Max Depth
  Node                 Type         Feet     Feet     Feet  days hr:min        Feet
  ---------------------------------------------------------------------------------
  238                  JUNCTION  -nan(ind)     0.00     9.99     0  00:00        0.00
  240                  JUNCTION  -nan(ind)     0.00     9.98     0  00:00        0.00
  Outfall              OUTFALL   -nan(ind)     0.00     9.97     0  00:00        0.00
  Duckpond             STORAGE   -nan(ind)     0.00    10.00     0  00:00        0.00
  202                  STORAGE   -nan(ind)     0.00    10.00     0  00:00        0.00
  203                  STORAGE   -nan(ind)     0.00    10.00     0  00:00        0.00
  204                  STORAGE   -nan(ind)     0.00    10.00     0  00:00        0.00
  205                  STORAGE   -nan(ind)     0.00    10.00     0  00:00        0.00
  206                  STORAGE   -nan(ind)     0.00    10.00     0  00:00        0.00
  207                  STORAGE   -nan(ind)     0.00    10.00     0  00:00        0.00
  
  
  *******************
  Node Inflow Summary
  *******************
  
  -------------------------------------------------------------------------------------------------
                                  Maximum  Maximum                  Lateral       Total        Flow
                                  Lateral    Total  Time of Max      Inflow      Inflow     Balance
                                   Inflow   Inflow   Occurrence      Volume      Volume       Error
  Node                 Type           CFS      CFS  days hr:min    10^6 gal    10^6 gal     Percent
  -------------------------------------------------------------------------------------------------
  238                  JUNCTION      0.00     0.00     0  00:00           0           0       0.000 gal
  240                  JUNCTION      0.00     0.00     0  00:00           0           0       0.000 gal
  Outfall              OUTFALL       0.00     0.00     0  00:00           0           0       0.000 gal
  Duckpond             STORAGE       0.00     0.00     0  00:00           0       0.217       0.000
  202                  STORAGE       0.00     0.00     0  00:00           0       0.217       0.000
  203                  STORAGE       0.00     0.00     0  00:00           0       0.217       0.000
  204                  STORAGE       0.00     0.00     0  00:00           0       0.217       0.000
  205                  STORAGE       0.00     0.00     0  00:00           0       0.217       0.000
  206                  STORAGE       0.00     0.00     0  00:00           0       0.217       0.000
  207                  STORAGE       0.00     0.00     0  00:00           0       0.217       0.000
  
  
  **********************
  Node Surcharge Summary
  **********************
  
  No nodes were surcharged.
  
  
  *********************
  Node Flooding Summary
  *********************
  
  No nodes were flooded.
  
  
  **********************
  Storage Volume Summary
  **********************
  
  --------------------------------------------------------------------------------------------------
                         Average     Avg  Evap Exfil       Maximum     Max    Time of Max    Maximum
                          Volume    Pcnt  Pcnt  Pcnt        Volume    Pcnt     Occurrence    Outflow
  Storage Unit          1000 ft3    Full  Loss  Loss      1000 ft3    Full    days hr:min        CFS
  --------------------------------------------------------------------------------------------------
  Duckpond             -nan(ind)    -nan(ind)     0     0         0.000       0       0  00:00       0.00
  202                  -nan(ind)    -nan(ind)     0     0         0.000       0       0  00:00       0.00
  203                  -nan(ind)    -nan(ind)     0     0         0.000       0       0  00:00       0.00
  204                  -nan(ind)    -nan(ind)     0     0         0.000       0       0  00:00       0.00
  205                  -nan(ind)    -nan(ind)     0     0         0.000       0       0  00:00       0.00
  206                  -nan(ind)    -nan(ind)     0     0         0.000       0       0  00:00       0.00
  207                  -nan(ind)    -nan(ind)     0     0         0.000       0       0  00:00       0.00
  
  
  ***********************
  Outfall Loading Summary
  ***********************
  
  -----------------------------------------------------------
                         Flow       Avg       Max       Total
                         Freq      Flow      Flow      Volume
  Outfall Node           Pcnt       CFS       CFS    10^6 gal
  -----------------------------------------------------------
  Outfall             -nan(ind)      0.00      0.00       0.000
  -----------------------------------------------------------
  System              -nan(ind)      0.00      0.00       0.000
  
  
  ********************
  Link Flow Summary
  ********************
  
  -----------------------------------------------------------------------------
                                 Maximum  Time of Max   Maximum    Max/    Max/
                                  |Flow|   Occurrence   |Veloc|    Full    Full
  Link                 Type          CFS  days hr:min    ft/sec    Flow   Depth
  -----------------------------------------------------------------------------
  239                  CONDUIT      0.00     0  00:00      0.00    0.00    0.00
  241                  CONDUIT      0.00     0  00:00      0.00    0.00    0.00
  243                  CONDUIT      0.00     0  00:00      0.00    0.00    0.00
  ORIF#1               ORIFICE      0.00     0  00:00                      0.00
  ORIF#2               ORIFICE      0.00     0  00:00                      0.00
  ORIF#3               ORIFICE      0.00     0  00:00                          
  ORIF#4               ORIFICE      0.00     0  00:00                          
  ORIF#5               ORIFICE      0.00     0  00:00                      0.00
  ORIF#6               ORIFICE      0.00     0  00:00                      0.00
  ORIF#7               ORIFICE      0.00     0  00:00                      0.00
  ORIF#8               ORIFICE      0.00     0  00:00                      0.00
  ORIF#9               ORIFICE      0.00     0  00:00                      0.00
  ORIF#10              ORIFICE      0.00     0  00:00                      0.00
  ORIF#11              ORIFICE      0.00     0  00:00                      0.00
  
  
  ***************************
  Flow Classification Summary
  ***************************
  
  -------------------------------------------------------------------------------------
                      Adjusted    ---------- Fraction of Time in Flow Class ---------- 
                       /Actual         Up    Down  Sub   Sup   Up    Down  Norm  Inlet 
  Conduit               Length    Dry  Dry   Dry   Crit  Crit  Crit  Crit  Ltd   Ctrl  
  -------------------------------------------------------------------------------------
  239                     1.00   -nan(ind)  -nan(ind)  -nan(ind)  -nan(ind)  -nan(ind)  -nan(ind)  -nan(ind)  -nan(ind)  -nan(ind)
  241                     1.00   -nan(ind)  -nan(ind)  -nan(ind)  -nan(ind)  -nan(ind)  -nan(ind)  -nan(ind)  -nan(ind)  -nan(ind)
  243                     1.00   -nan(ind)  -nan(ind)  -nan(ind)  -nan(ind)  -nan(ind)  -nan(ind)  -nan(ind)  -nan(ind)  -nan(ind)
  
  
  *************************
  Conduit Surcharge Summary
  *************************
  
  No conduits were surcharged.
  

  Analysis begun on:  Sat Nov 30 08:12:08 2019
  Analysis ended on:  Sat Nov 30 08:12:08 2019
  Total elapsed time: < 1 sec