
  EPA STORM WATER MANAGEMENT MODEL - VERSION 5.1 (Build 5.1.013)
  --------------------------------------------------------------

   Example 3 
   Use of Rule-Based Pump Controls 
   and Dry Weather Flow Patterns 
  
  
  *********************************************************
  NOTE: The summary statistics displayed in this report are
  based on results found at every computational time step,  
  not just on results from each reporting time step.
  *********************************************************
  
  ****************
  Analysis Options
  ****************
  Flow Units ............... CFS
  Process Models:
    Rainfall/Runoff ........ NO
    RDII ................... NO
    Snowmelt ............... NO
    Groundwater ............ NO
    Flow Routing ........... YES
    Ponding Allowed ........ NO
    Water Quality .......... NO
  Flow Routing Method ...... DYNWAVE
  Surcharge Method ......... EXTRAN
  Starting Date ............ 01/01/2001 00:00:00
  Ending Date .............. 01/02/2001 00:00:00
  Antecedent Dry Days ...... 0.0
  Report Time Step ......... 00:05:00
  Routing Time Step ........ 20.00 sec
  Variable Time Step ....... YES
  Maximum Trials ........... 8
  Number of Threads ........ 1
  Head Tolerance ........... 0.005000 ft
  
  
  *********************
  Control Actions Taken
  *********************

  
  **************************        Volume        Volume
  Flow Routing Continuity        acre-feet      10^6 gal
  **************************     ---------     ---------
  Dry Weather Inflow .......         0.000         0.000
  Wet Weather Inflow .......         0.000         0.000
  Groundwater Inflow .......         0.000         0.000
  RDII Inflow ..............         0.000         0.000
  External Inflow ..........         0.000         0.000
  External Outflow .........         0.000         0.000
  Flooding Loss ............         0.000         0.000
  Evaporation Loss .........         0.000         0.000
  Exfiltration Loss ........         0.000         0.000
  Initial Stored Volume ....         0.000         0.000
  Final Stored Volume ......         0.000         0.000
  Continuity Error (%) .....         0.000
  
  
  ***************************
  Time-Step Critical Elements
  ***************************
  None
  
  
  ********************************
  Highest Flow Instability Indexes
  ********************************
  All links are stable.
  
  
  ******************
  Node Depth Summary
  ******************
  
  ---------------------------------------------------------------------------------
                                 Average  Maximum  Maximum  Time of Max    Reported
                                   Depth    Depth      HGL   Occurrence   Max Depth
  Node                 Type         Feet     Feet     Feet  days hr:min        Feet
  ---------------------------------------------------------------------------------
  KRO3001              JUNCTION  -nan(ind)     0.00   556.19     0  00:00        0.00
  KRO6015              JUNCTION  -nan(ind)     0.00   585.98     0  00:00        0.00
  KRO6016              JUNCTION  -nan(ind)     0.00   584.14     0  00:00        0.00
  KRO6017              JUNCTION  -nan(ind)     0.00   582.01     0  00:00        0.00
  KRO1002              JUNCTION  -nan(ind)     0.00   594.89     0  00:00        0.00
  KRO1003              JUNCTION  -nan(ind)     0.00   594.73     0  00:00        0.00
  KRO1004              JUNCTION  -nan(ind)     0.00   588.09     0  00:00        0.00
  KRO1005              JUNCTION  -nan(ind)     0.00   579.40     0  00:00        0.00
  KRO1006              JUNCTION  -nan(ind)     0.00   602.48     0  00:00        0.00
  KRO1007              JUNCTION  -nan(ind)     0.00   596.76     0  00:00        0.00
  KRO1008              JUNCTION  -nan(ind)     0.00   593.58     0  00:00        0.00
  KRO1009              JUNCTION  -nan(ind)     0.00   590.56     0  00:00        0.00
  KRO1010              JUNCTION  -nan(ind)     0.00   584.82     0  00:00        0.00
  KRO1012              JUNCTION  -nan(ind)     0.00   584.25     0  00:00        0.00
  KRO1013              JUNCTION  -nan(ind)     0.00   591.58     0  00:00        0.00
  KRO1014              JUNCTION  -nan(ind)     0.00   592.41     0  00:00        0.00
  KRO1015              JUNCTION  -nan(ind)     0.00   586.69     0  00:00        0.00
  KRO2001              JUNCTION  -nan(ind)     0.00   576.29     0  00:00        0.00
  KRO4004              JUNCTION  -nan(ind)     0.00   587.39     0  00:00        0.00
  KRO4008              JUNCTION  -nan(ind)     0.00   583.48     0  00:00        0.00
  KRO4009              JUNCTION  -nan(ind)     0.00   581.68     0  00:00        0.00
  KRO4010              JUNCTION  -nan(ind)     0.00   579.88     0  00:00        0.00
  KRO4011              JUNCTION  -nan(ind)     0.00   578.43     0  00:00        0.00
  KRO4012              JUNCTION  -nan(ind)     0.00   564.71     0  00:00        0.00
  KRO4013              JUNCTION  -nan(ind)     0.00   567.88     0  00:00        0.00
  KRO4014              JUNCTION  -nan(ind)     0.00   573.18     0  00:00        0.00
  KRO4015              JUNCTION  -nan(ind)     0.00   563.71     0  00:00        0.00
  KRO4016              JUNCTION  -nan(ind)     0.00   563.24     0  00:00        0.00
  KRO4017              JUNCTION  -nan(ind)     0.00   558.36     0  00:00        0.00
  KRO4018              JUNCTION  -nan(ind)     0.00   556.02     0  00:00        0.00
  KRO4019              JUNCTION  -nan(ind)     0.00   552.42     0  00:00        0.00
  KRO2005              OUTFALL   -nan(ind)     0.00   574.32     0  00:00        0.00
  PSO                  OUTFALL   -nan(ind)     0.00   548.36     0  00:00        0.00
  SU1                  STORAGE   -nan(ind)     0.00   544.74     0  00:00        0.00
  
  
  *******************
  Node Inflow Summary
  *******************
  
  -------------------------------------------------------------------------------------------------
                                  Maximum  Maximum                  Lateral       Total        Flow
                                  Lateral    Total  Time of Max      Inflow      Inflow     Balance
                                   Inflow   Inflow   Occurrence      Volume      Volume       Error
  Node                 Type           CFS      CFS  days hr:min    10^6 gal    10^6 gal     Percent
  -------------------------------------------------------------------------------------------------
  KRO3001              JUNCTION      0.00     0.00     0  00:00           0           0       0.000 gal
  KRO6015              JUNCTION      0.00     0.00     0  00:00           0           0       0.000 gal
  KRO6016              JUNCTION      0.00     0.00     0  00:00           0           0       0.000 gal
  KRO6017              JUNCTION      0.00     0.00     0  00:00           0           0       0.000 gal
  KRO1002              JUNCTION      0.00     0.00     0  00:00           0           0       0.000 gal
  KRO1003              JUNCTION      0.00     0.00     0  00:00           0           0       0.000 gal
  KRO1004              JUNCTION      0.00     0.00     0  00:00           0           0       0.000 gal
  KRO1005              JUNCTION      0.00     0.00     0  00:00           0           0       0.000 gal
  KRO1006              JUNCTION      0.00     0.00     0  00:00           0           0       0.000 gal
  KRO1007              JUNCTION      0.00     0.00     0  00:00           0           0       0.000 gal
  KRO1008              JUNCTION      0.00     0.00     0  00:00           0           0       0.000 gal
  KRO1009              JUNCTION      0.00     0.00     0  00:00           0           0       0.000 gal
  KRO1010              JUNCTION      0.00     0.00     0  00:00           0           0       0.000 gal
  KRO1012              JUNCTION      0.00     0.00     0  00:00           0           0       0.000 gal
  KRO1013              JUNCTION      0.00     0.00     0  00:00           0           0       0.000 gal
  KRO1014              JUNCTION      0.00     0.00     0  00:00           0           0       0.000 gal
  KRO1015              JUNCTION      0.00     0.00     0  00:00           0           0       0.000 gal
  KRO2001              JUNCTION      0.00     0.00     0  00:00           0           0       0.000 gal
  KRO4004              JUNCTION      0.00     0.00     0  00:00           0           0       0.000 gal
  KRO4008              JUNCTION      0.00     0.00     0  00:00           0           0       0.000 gal
  KRO4009              JUNCTION      0.00     0.00     0  00:00           0           0       0.000 gal
  KRO4010              JUNCTION      0.00     0.00     0  00:00           0           0       0.000 gal
  KRO4011              JUNCTION      0.00     0.00     0  00:00           0           0       0.000 gal
  KRO4012              JUNCTION      0.00     0.00     0  00:00           0           0       0.000 gal
  KRO4013              JUNCTION      0.00     0.00     0  00:00           0           0       0.000 gal
  KRO4014              JUNCTION      0.00     0.00     0  00:00           0           0       0.000 gal
  KRO4015              JUNCTION      0.00     0.00     0  00:00           0           0       0.000 gal
  KRO4016              JUNCTION      0.00     0.00     0  00:00           0           0       0.000 gal
  KRO4017              JUNCTION      0.00     0.00     0  00:00           0           0       0.000 gal
  KRO4018              JUNCTION      0.00     0.00     0  00:00           0           0       0.000 gal
  KRO4019              JUNCTION      0.00     0.00     0  00:00           0           0       0.000 gal
  KRO2005              OUTFALL       0.00     0.00     0  00:00           0           0       0.000 gal
  PSO                  OUTFALL       0.00     0.00     0  00:00           0           0       0.000 gal
  SU1                  STORAGE       0.00     0.00     0  00:00           0           0       0.000 gal
  
  
  **********************
  Node Surcharge Summary
  **********************
  
  No nodes were surcharged.
  
  
  *********************
  Node Flooding Summary
  *********************
  
  No nodes were flooded.
  
  
  **********************
  Storage Volume Summary
  **********************
  
  --------------------------------------------------------------------------------------------------
                         Average     Avg  Evap Exfil       Maximum     Max    Time of Max    Maximum
                          Volume    Pcnt  Pcnt  Pcnt        Volume    Pcnt     Occurrence    Outflow
  Storage Unit          1000 ft3    Full  Loss  Loss      1000 ft3    Full    days hr:min        CFS
  --------------------------------------------------------------------------------------------------
  SU1                  -nan(ind)    -nan(ind)     0     0         0.000       0       0  00:00       0.00
  
  
  ***********************
  Outfall Loading Summary
  ***********************
  
  -----------------------------------------------------------
                         Flow       Avg       Max       Total
                         Freq      Flow      Flow      Volume
  Outfall Node           Pcnt       CFS       CFS    10^6 gal
  -----------------------------------------------------------
  KRO2005             -nan(ind)      0.00      0.00       0.000
  PSO                 -nan(ind)      0.00      0.00       0.000
  -----------------------------------------------------------
  System              -nan(ind)      0.00      0.00       0.000
  
  
  ********************
  Link Flow Summary
  ********************
  
  -----------------------------------------------------------------------------
                                 Maximum  Time of Max   Maximum    Max/    Max/
                                  |Flow|   Occurrence   |Veloc|    Full    Full
  Link                 Type          CFS  days hr:min    ft/sec    Flow   Depth
  -----------------------------------------------------------------------------
  KRO3001-KRO3002      CONDUIT      0.00     0  00:00      0.00    0.00    0.00
  SU1-PSO              CONDUIT      0.00     0  00:00      0.00    0.00    0.00
  KRO1002-KRO1003      CONDUIT      0.00     0  00:00      0.00    0.00    0.00
  KRO1003-KRO1008      CONDUIT      0.00     0  00:00      0.00    0.00    0.00
  KRO1004-KRO6016      CONDUIT      0.00     0  00:00      0.00    0.00    0.00
  KRO1005-KRO2001      CONDUIT      0.00     0  00:00      0.00    0.00    0.00
  KRO1006-KRO1007      CONDUIT      0.00     0  00:00      0.00    0.00    0.00
  KRO1007-KRO1008      CONDUIT      0.00     0  00:00      0.00    0.00    0.00
  KRO1008-KRO1009      CONDUIT      0.00     0  00:00      0.00    0.00    0.00
  KRO1009-KRO1010      CONDUIT      0.00     0  00:00      0.00    0.00    0.00
  KRO1010-KRO2001      CONDUIT      0.00     0  00:00      0.00    0.00    0.00
  KRO1012-KRO4009      CONDUIT      0.00     0  00:00      0.00    0.00    0.00
  KRO1013-KRO1009      CONDUIT      0.00     0  00:00      0.00    0.00    0.00
  KRO1014-KRO1013      CONDUIT      0.00     0  00:00      0.00    0.00    0.00
  KRO1015-KRO4014      CONDUIT      0.00     0  00:00      0.00    0.00    0.00
  KRO2001-KRO2005      CONDUIT      0.00     0  00:00      0.00    0.00    0.00
  KRO4004-KRO4008      CONDUIT      0.00     0  00:00      0.00    0.00    0.00
  KRO4008-KRO4011      CONDUIT      0.00     0  00:00      0.00    0.00    0.00
  KRO4009-KRO4010      CONDUIT      0.00     0  00:00      0.00    0.00    0.00
  KRO4010-KRO4011      CONDUIT      0.00     0  00:00      0.00    0.00    0.00
  KRO4011-KRO4012      CONDUIT      0.00     0  00:00      0.00    0.00    0.00
  KRO4012-KRO3001      CONDUIT      0.00     0  00:00      0.00    0.00    0.00
  KRO4013-KRO4017      CONDUIT      0.00     0  00:00      0.00    0.00    0.00
  KRO4014-KRO4015      CONDUIT      0.00     0  00:00      0.00    0.00    0.00
  KRO4015-KRO4016      CONDUIT      0.00     0  00:00      0.00    0.00    0.00
  KRO4016-KRO4017      CONDUIT      0.00     0  00:00      0.00    0.00    0.00
  KRO4017-KRO4018      CONDUIT      0.00     0  00:00      0.00    0.00    0.00
  KRO4018-KRO4019      CONDUIT      0.00     0  00:00      0.00    0.00    0.00
  KRO4019-KRO3002      CONDUIT      0.00     0  00:00      0.00    0.00    0.00
  KRO6015-KRO6016      CONDUIT      0.00     0  00:00      0.00    0.00    0.00
  KRO6016-KRO6017      CONDUIT      0.00     0  00:00      0.00    0.00    0.00
  KRO6017-KRO1005      CONDUIT      0.00     0  00:00      0.00    0.00    0.00
  PUMP1                PUMP         0.00     0  00:00              0.00
  
  
  ***************************
  Flow Classification Summary
  ***************************
  
  -------------------------------------------------------------------------------------
                      Adjusted    ---------- Fraction of Time in Flow Class ---------- 
                       /Actual         Up    Down  Sub   Sup   Up    Down  Norm  Inlet 
  Conduit               Length    Dry  Dry   Dry   Crit  Crit  Crit  Crit  Ltd   Ctrl  
  -------------------------------------------------------------------------------------
  KRO3001-KRO3002         1.00   -nan(ind)  -nan(ind)  -nan(ind)  -nan(ind)  -nan(ind)  -nan(ind)  -nan(ind)  -nan(ind)  -nan(ind)
  SU1-PSO                 1.00   -nan(ind)  -nan(ind)  -nan(ind)  -nan(ind)  -nan(ind)  -nan(ind)  -nan(ind)  -nan(ind)  -nan(ind)
  KRO1002-KRO1003         1.00   -nan(ind)  -nan(ind)  -nan(ind)  -nan(ind)  -nan(ind)  -nan(ind)  -nan(ind)  -nan(ind)  -nan(ind)
  KRO1003-KRO1008         1.00   -nan(ind)  -nan(ind)  -nan(ind)  -nan(ind)  -nan(ind)  -nan(ind)  -nan(ind)  -nan(ind)  -nan(ind)
  KRO1004-KRO6016         1.00   -nan(ind)  -nan(ind)  -nan(ind)  -nan(ind)  -nan(ind)  -nan(ind)  -nan(ind)  -nan(ind)  -nan(ind)
  KRO1005-KRO2001         1.00   -nan(ind)  -nan(ind)  -nan(ind)  -nan(ind)  -nan(ind)  -nan(ind)  -nan(ind)  -nan(ind)  -nan(ind)
  KRO1006-KRO1007         1.00   -nan(ind)  -nan(ind)  -nan(ind)  -nan(ind)  -nan(ind)  -nan(ind)  -nan(ind)  -nan(ind)  -nan(ind)
  KRO1007-KRO1008         1.00   -nan(ind)  -nan(ind)  -nan(ind)  -nan(ind)  -nan(ind)  -nan(ind)  -nan(ind)  -nan(ind)  -nan(ind)
  KRO1008-KRO1009         1.00   -nan(ind)  -nan(ind)  -nan(ind)  -nan(ind)  -nan(ind)  -nan(ind)  -nan(ind)  -nan(ind)  -nan(ind)
  KRO1009-KRO1010         1.00   -nan(ind)  -nan(ind)  -nan(ind)  -nan(ind)  -nan(ind)  -nan(ind)  -nan(ind)  -nan(ind)  -nan(ind)
  KRO1010-KRO2001         1.00   -nan(ind)  -nan(ind)  -nan(ind)  -nan(ind)  -nan(ind)  -nan(ind)  -nan(ind)  -nan(ind)  -nan(ind)
  KRO1012-KRO4009         1.00   -nan(ind)  -nan(ind)  -nan(ind)  -nan(ind)  -nan(ind)  -nan(ind)  -nan(ind)  -nan(ind)  -nan(ind)
  KRO1013-KRO1009         1.00   -nan(ind)  -nan(ind)  -nan(ind)  -nan(ind)  -nan(ind)  -nan(ind)  -nan(ind)  -nan(ind)  -nan(ind)
  KRO1014-KRO1013         1.00   -nan(ind)  -nan(ind)  -nan(ind)  -nan(ind)  -nan(ind)  -nan(ind)  -nan(ind)  -nan(ind)  -nan(ind)
  KRO1015-KRO4014         1.00   -nan(ind)  -nan(ind)  -nan(ind)  -nan(ind)  -nan(ind)  -nan(ind)  -nan(ind)  -nan(ind)  -nan(ind)
  KRO2001-KRO2005         1.00   -nan(ind)  -nan(ind)  -nan(ind)  -nan(ind)  -nan(ind)  -nan(ind)  -nan(ind)  -nan(ind)  -nan(ind)
  KRO4004-KRO4008         1.00   -nan(ind)  -nan(ind)  -nan(ind)  -nan(ind)  -nan(ind)  -nan(ind)  -nan(ind)  -nan(ind)  -nan(ind)
  KRO4008-KRO4011         1.00   -nan(ind)  -nan(ind)  -nan(ind)  -nan(ind)  -nan(ind)  -nan(ind)  -nan(ind)  -nan(ind)  -nan(ind)
  KRO4009-KRO4010         1.00   -nan(ind)  -nan(ind)  -nan(ind)  -nan(ind)  -nan(ind)  -nan(ind)  -nan(ind)  -nan(ind)  -nan(ind)
  KRO4010-KRO4011         1.00   -nan(ind)  -nan(ind)  -nan(ind)  -nan(ind)  -nan(ind)  -nan(ind)  -nan(ind)  -nan(ind)  -nan(ind)
  KRO4011-KRO4012         1.00   -nan(ind)  -nan(ind)  -nan(ind)  -nan(ind)  -nan(ind)  -nan(ind)  -nan(ind)  -nan(ind)  -nan(ind)
  KRO4012-KRO3001         1.00   -nan(ind)  -nan(ind)  -nan(ind)  -nan(ind)  -nan(ind)  -nan(ind)  -nan(ind)  -nan(ind)  -nan(ind)
  KRO4013-KRO4017         1.00   -nan(ind)  -nan(ind)  -nan(ind)  -nan(ind)  -nan(ind)  -nan(ind)  -nan(ind)  -nan(ind)  -nan(ind)
  KRO4014-KRO4015         1.00   -nan(ind)  -nan(ind)  -nan(ind)  -nan(ind)  -nan(ind)  -nan(ind)  -nan(ind)  -nan(ind)  -nan(ind)
  KRO4015-KRO4016         1.00   -nan(ind)  -nan(ind)  -nan(ind)  -nan(ind)  -nan(ind)  -nan(ind)  -nan(ind)  -nan(ind)  -nan(ind)
  KRO4016-KRO4017         1.00   -nan(ind)  -nan(ind)  -nan(ind)  -nan(ind)  -nan(ind)  -nan(ind)  -nan(ind)  -nan(ind)  -nan(ind)
  KRO4017-KRO4018         1.00   -nan(ind)  -nan(ind)  -nan(ind)  -nan(ind)  -nan(ind)  -nan(ind)  -nan(ind)  -nan(ind)  -nan(ind)
  KRO4018-KRO4019         1.00   -nan(ind)  -nan(ind)  -nan(ind)  -nan(ind)  -nan(ind)  -nan(ind)  -nan(ind)  -nan(ind)  -nan(ind)
  KRO4019-KRO3002         1.00   -nan(ind)  -nan(ind)  -nan(ind)  -nan(ind)  -nan(ind)  -nan(ind)  -nan(ind)  -nan(ind)  -nan(ind)
  KRO6015-KRO6016         1.00   -nan(ind)  -nan(ind)  -nan(ind)  -nan(ind)  -nan(ind)  -nan(ind)  -nan(ind)  -nan(ind)  -nan(ind)
  KRO6016-KRO6017         1.00   -nan(ind)  -nan(ind)  -nan(ind)  -nan(ind)  -nan(ind)  -nan(ind)  -nan(ind)  -nan(ind)  -nan(ind)
  KRO6017-KRO1005         1.00   -nan(ind)  -nan(ind)  -nan(ind)  -nan(ind)  -nan(ind)  -nan(ind)  -nan(ind)  -nan(ind)  -nan(ind)
  
  
  *************************
  Conduit Surcharge Summary
  *************************
  
  No conduits were surcharged.
  
  
  ***************
  Pumping Summary
  ***************
  
  ---------------------------------------------------------------------------------------------------------
                                                  Min       Avg       Max     Total     Power    % Time Off
                        Percent   Number of      Flow      Flow      Flow    Volume     Usage    Pump Curve
  Pump                 Utilized   Start-Ups       CFS       CFS       CFS  10^6 gal     Kw-hr    Low   High
  ---------------------------------------------------------------------------------------------------------
  PUMP1                -nan(ind)           0      0.00      0.00      0.00     0.000      0.00    0.0    0.0
  

  Analysis begun on:  Sat Nov 30 08:08:27 2019
  Analysis ended on:  Sat Nov 30 08:08:27 2019
  Total elapsed time: < 1 sec