
  EPA STORM WATER MANAGEMENT MODEL - VERSION 5.1 (Build 5.1.013)
  --------------------------------------------------------------

  Example 1 
  
  
  *********************************************************
  NOTE: The summary statistics displayed in this report are
  based on results found at every computational time step,  
  not just on results from each reporting time step.
  *********************************************************
  
  ****************
  Analysis Options
  ****************
  Flow Units ............... CFS
  Process Models:
    Rainfall/Runoff ........ YES
    RDII ................... NO
    Snowmelt ............... NO
    Groundwater ............ NO
    Flow Routing ........... YES
    Ponding Allowed ........ NO
    Water Quality .......... YES
  Infiltration Method ...... HORTON
  Flow Routing Method ...... DYNWAVE
  Surcharge Method ......... EXTRAN
  Starting Date ............ 01/01/1998 00:00:00
  Ending Date .............. 01/02/1998 12:00:00
  Antecedent Dry Days ...... 5.0
  Report Time Step ......... 01:00:00
  Wet Time Step ............ 00:15:00
  Dry Time Step ............ 01:00:00
  Routing Time Step ........ 60.00 sec
  Variable Time Step ....... YES
  Maximum Trials ........... 8
  Number of Threads ........ 1
  Head Tolerance ........... 0.005000 ft
  
  
  **************************        Volume         Depth
  Runoff Quantity Continuity     acre-feet        inches
  **************************     ---------       -------
  Total Precipitation ......        15.679         2.650
  Evaporation Loss .........         0.000         0.000
  Infiltration Loss ........         9.346         1.580
  Surface Runoff ...........         6.295         1.064
  Final Storage ............         0.081         0.014
  Continuity Error (%) .....        -0.272
  
  
  **************************           TSS          Lead
  Runoff Quality Continuity            lbs           lbs
  **************************    ----------    ----------
  Initial Buildup ..........      3433.036         0.000
  Surface Buildup ..........       312.924         0.086
  Wet Deposition ...........         0.000         0.000
  Sweeping Removal .........         0.000         0.000
  Infiltration Loss ........         0.000         0.000
  BMP Removal ..............         0.000         0.000
  Surface Runoff ...........       431.367         0.086
  Remaining Buildup ........      3314.593         0.000
  Continuity Error (%) .....         0.000         0.000
  
  
  **************************        Volume        Volume
  Flow Routing Continuity        acre-feet      10^6 gal
  **************************     ---------     ---------
  Dry Weather Inflow .......         0.000         0.000
  Wet Weather Inflow .......         6.293         2.051
  Groundwater Inflow .......         0.000         0.000
  RDII Inflow ..............         0.000         0.000
  External Inflow ..........         0.000         0.000
  External Outflow .........         6.058         1.974
  Flooding Loss ............         0.232         0.076
  Evaporation Loss .........         0.000         0.000
  Exfiltration Loss ........         0.000         0.000
  Initial Stored Volume ....         0.000         0.000
  Final Stored Volume ......         0.002         0.001
  Continuity Error (%) .....         0.006
  
  
  **************************           TSS          Lead
  Quality Routing Continuity           lbs           lbs
  **************************    ----------    ----------
  Dry Weather Inflow .......         0.000         0.000
  Wet Weather Inflow .......       431.190         0.086
  Groundwater Inflow .......         0.000         0.000
  RDII Inflow ..............         0.000         0.000
  External Inflow ..........         0.000         0.000
  External Outflow .........       418.780         0.084
  Flooding Loss ............        12.321         0.002
  Exfiltration Loss ........         0.000         0.000
  Mass Reacted .............         0.000         0.000
  Initial Stored Mass ......         0.000         0.000
  Final Stored Mass ........         0.408         0.000
  Continuity Error (%) .....        -0.074        -0.074
  
  
  ***************************
  Time-Step Critical Elements
  ***************************
  Link 15 (91.61%)
  
  
  ********************************
  Highest Flow Instability Indexes
  ********************************
  All links are stable.
  
  
  *************************
  Routing Time Step Summary
  *************************
  Minimum Time Step           :     1.48 sec
  Average Time Step           :    18.91 sec
  Maximum Time Step           :    60.00 sec
  Percent in Steady State     :     0.00
  Average Iterations per Step :     2.03
  Percent Not Converging      :     0.07
  
  
  ***************************
  Subcatchment Runoff Summary
  ***************************
  
  ------------------------------------------------------------------------------------------------------------------------------
                            Total      Total      Total      Total     Imperv       Perv      Total       Total     Peak  Runoff
                           Precip      Runon       Evap      Infil     Runoff     Runoff     Runoff      Runoff   Runoff   Coeff
  Subcatchment                 in         in         in         in         in         in         in    10^6 gal      CFS
  ------------------------------------------------------------------------------------------------------------------------------
  1                          2.65       0.00       0.00       1.16       1.32       0.17       1.48        0.40     4.66   0.559
  2                          2.65       0.00       0.00       1.21       1.32       0.11       1.43        0.39     4.52   0.539
  3                          2.65       0.00       0.00       1.16       1.32       0.17       1.49        0.20     2.45   0.561
  4                          2.65       0.00       0.00       1.16       1.32       0.17       1.49        0.20     2.45   0.561
  5                          2.65       0.00       0.00       1.24       1.31       0.09       1.40        0.57     6.56   0.528
  6                          2.65       0.00       0.00       2.27       0.26       0.12       0.38        0.12     1.50   0.143
  7                          2.65       0.00       0.00       2.14       0.26       0.25       0.51        0.06     0.79   0.194
  8                          2.65       0.00       0.00       2.25       0.26       0.13       0.40        0.11     1.33   0.150
  
  
  ****************************
  Subcatchment Washoff Summary
  ****************************
  
  ------------------------------------------------
                                 TSS          Lead
  Subcatchment                   lbs           lbs
  ------------------------------------------------
  1                           50.074         0.010
  2                           90.586         0.018
  3                           25.144         0.005
  4                           46.097         0.009
  5                           71.172         0.014
  6                           65.843         0.013
  7                           26.025         0.005
  8                           56.427         0.011
  ------------------------------------------------
  System                     431.367         0.086
  
  
  ******************
  Node Depth Summary
  ******************
  
  ---------------------------------------------------------------------------------
                                 Average  Maximum  Maximum  Time of Max    Reported
                                   Depth    Depth      HGL   Occurrence   Max Depth
  Node                 Type         Feet     Feet     Feet  days hr:min        Feet
  ---------------------------------------------------------------------------------
  9                    JUNCTION     0.23     0.57  1000.57     0  04:00        0.57
  10                   JUNCTION     0.79     3.00   998.00     0  03:03        3.00
  13                   JUNCTION     0.16     0.41   995.41     0  04:00        0.41
  14                   JUNCTION     0.19     0.46   990.46     0  04:00        0.46
  15                   JUNCTION     0.43     1.15   988.15     0  04:00        1.15
  16                   JUNCTION     0.48     1.14   986.14     0  04:00        1.14
  17                   JUNCTION     0.47     1.11   981.11     0  04:01        1.11
  19                   JUNCTION     0.08     0.23  1010.23     0  04:00        0.23
  20                   JUNCTION     0.06     0.17  1005.17     0  04:00        0.17
  21                   JUNCTION     1.30     1.64   991.64     0  04:00        1.64
  22                   JUNCTION     0.39     0.85   987.85     0  04:00        0.85
  23                   JUNCTION     0.14     0.35   990.35     0  04:00        0.35
  24                   JUNCTION     0.50     1.20   985.20     0  04:00        1.20
  18                   OUTFALL      0.47     1.11   976.11     0  04:01        1.11
  
  
  *******************
  Node Inflow Summary
  *******************
  
  -------------------------------------------------------------------------------------------------
                                  Maximum  Maximum                  Lateral       Total        Flow
                                  Lateral    Total  Time of Max      Inflow      Inflow     Balance
                                   Inflow   Inflow   Occurrence      Volume      Volume       Error
  Node                 Type           CFS      CFS  days hr:min    10^6 gal    10^6 gal     Percent
  -------------------------------------------------------------------------------------------------
  9                    JUNCTION      4.66     4.66     0  04:00       0.402       0.402      -0.006
  10                   JUNCTION      4.52     9.18     0  04:00       0.388        0.79       0.002
  13                   JUNCTION      2.45     2.45     0  04:00       0.202       0.202      -0.020
  14                   JUNCTION      0.00     2.45     0  04:00           0       0.202       0.011
  15                   JUNCTION      6.56     9.00     0  04:00        0.57       0.772       0.004
  16                   JUNCTION      0.00    18.01     0  04:00           0        1.74       0.009
  17                   JUNCTION      0.00    19.49     0  04:00           0        1.87       0.010
  19                   JUNCTION      0.79     0.79     0  04:00      0.0558      0.0558      -0.013
  20                   JUNCTION      0.00     0.79     0  04:00           0      0.0558      -0.005
  21                   JUNCTION      0.00     6.58     0  04:00           0        0.77       0.081
  22                   JUNCTION      2.45     9.02     0  04:00       0.202       0.971      -0.002
  23                   JUNCTION      1.50     1.50     0  04:00       0.124       0.124      -0.045
  24                   JUNCTION      0.00    19.49     0  04:00           0        1.87      -0.003
  18                   OUTFALL       1.33    20.78     0  04:01       0.108        1.97       0.000
  
  
  **********************
  Node Surcharge Summary
  **********************
  
  Surcharging occurs when water rises above the top of the highest conduit.
  ---------------------------------------------------------------------
                                               Max. Height   Min. Depth
                                   Hours       Above Crown    Below Rim
  Node                 Type      Surcharged           Feet         Feet
  ---------------------------------------------------------------------
  10                   JUNCTION        2.06          1.500        0.000
  
  
  *********************
  Node Flooding Summary
  *********************
  
  Flooding refers to all water that overflows a node, whether it ponds or not.
  --------------------------------------------------------------------------
                                                             Total   Maximum
                                 Maximum   Time of Max       Flood    Ponded
                        Hours       Rate    Occurrence      Volume     Depth
  Node                 Flooded       CFS   days hr:min    10^6 gal      Feet
  --------------------------------------------------------------------------
  10                      1.19      3.38      0  04:00       0.076     0.000
  
  
  ***********************
  Outfall Loading Summary
  ***********************
  
  ---------------------------------------------------------------------------------------
                         Flow       Avg       Max       Total         Total         Total
                         Freq      Flow      Flow      Volume           TSS          Lead
  Outfall Node           Pcnt       CFS       CFS    10^6 gal           lbs           lbs
  ---------------------------------------------------------------------------------------
  18                    91.19      7.13     20.78       1.974       418.783         0.084
  ---------------------------------------------------------------------------------------
  System                91.19      7.13     20.78       1.974       418.783         0.084
  
  
  ********************
  Link Flow Summary
  ********************
  
  -----------------------------------------------------------------------------
                                 Maximum  Time of Max   Maximum    Max/    Max/
                                  |Flow|   Occurrence   |Veloc|    Full    Full
  Link                 Type          CFS  days hr:min    ft/sec    Flow   Depth
  -----------------------------------------------------------------------------
  1                    CONDUIT      4.65     0  04:00      3.58    0.30    0.69
  4                    CONDUIT      0.79     0  04:00      7.02    0.11    0.20
  5                    CONDUIT      0.79     0  04:00      1.65    0.06    0.58
  6                    CONDUIT      5.79     0  03:51      7.43    1.25    0.97
  7                    CONDUIT      6.58     0  04:01      7.54    0.22    0.32
  8                    CONDUIT      9.02     0  04:00      5.94    0.38    0.50
  10                   CONDUIT     19.49     0  04:01     10.90    0.59    0.55
  11                   CONDUIT      2.45     0  04:00      5.77    0.16    0.29
  12                   CONDUIT      2.44     0  04:00      2.54    0.21    0.54
  13                   CONDUIT      8.99     0  04:00      6.22    0.93    0.76
  14                   CONDUIT      1.49     0  04:00      3.52    0.26    0.68
  15                   CONDUIT     18.00     0  04:00      9.43    0.61    0.59
  16                   CONDUIT     19.49     0  04:00     10.39    0.66    0.58
  
  
  ***************************
  Flow Classification Summary
  ***************************
  
  -------------------------------------------------------------------------------------
                      Adjusted    ---------- Fraction of Time in Flow Class ---------- 
                       /Actual         Up    Down  Sub   Sup   Up    Down  Norm  Inlet 
  Conduit               Length    Dry  Dry   Dry   Crit  Crit  Crit  Crit  Ltd   Ctrl  
  -------------------------------------------------------------------------------------
  1                       1.00   0.01  0.00  0.00  0.68  0.31  0.00  0.00  0.97  0.00
  4                       1.00   0.02  0.01  0.00  0.26  0.71  0.00  0.00  0.10  0.00
  5                       1.00   0.01  0.19  0.00  0.81  0.00  0.00  0.00  0.97  0.00
  6                       1.00   0.01  0.00  0.00  0.04  0.16  0.00  0.79  0.00  0.00
  7                       1.00   0.01  0.00  0.00  0.00  0.00  0.00  0.99  0.00  0.00
  8                       1.00   0.01  0.00  0.00  0.30  0.69  0.00  0.00  0.96  0.00
  10                      1.00   0.01  0.00  0.00  0.00  0.99  0.00  0.00  0.14  0.00
  11                      1.00   0.01  0.01  0.00  0.25  0.74  0.00  0.00  0.91  0.00
  12                      1.00   0.01  0.02  0.00  0.97  0.00  0.00  0.00  0.97  0.00
  13                      1.00   0.01  0.00  0.00  0.32  0.67  0.00  0.00  0.53  0.00
  14                      1.00   0.01  0.02  0.00  0.96  0.01  0.00  0.00  0.97  0.00
  15                      1.00   0.01  0.00  0.00  0.11  0.88  0.00  0.00  0.77  0.00
  16                      1.00   0.01  0.00  0.00  0.12  0.87  0.00  0.00  0.59  0.00
  
  
  *************************
  Conduit Surcharge Summary
  *************************
  
  ----------------------------------------------------------------------------
                                                           Hours        Hours 
                         --------- Hours Full --------   Above Full   Capacity
  Conduit                Both Ends  Upstream  Dnstream   Normal Flow   Limited
  ----------------------------------------------------------------------------
  1                           0.01      0.01      2.06      0.01         0.01
  5                           0.01      0.01     34.80      0.01         0.01
  6                           0.01      2.47      0.01      2.86         0.01
  14                          0.01      0.01      1.16      0.01         0.01
  
  
  ***************************
  Link Pollutant Load Summary
  ***************************
  
  ------------------------------------------------
                                 TSS          Lead
  Link                           lbs           lbs
  ------------------------------------------------
  1                           50.110         0.010
  4                           26.019         0.005
  5                           26.091         0.005
  6                          128.298         0.026
  7                          154.135         0.031
  8                          200.293         0.040
  10                         362.371         0.072
  11                          25.152         0.005
  12                          25.174         0.005
  13                          96.339         0.019
  14                          65.848         0.013
  15                         296.526         0.059
  16                         362.388         0.072
  

  Analysis begun on:  Fri Nov 29 17:03:09 2019
  Analysis ended on:  Fri Nov 29 17:03:09 2019
  Total elapsed time: < 1 sec