
  EPA STORM WATER MANAGEMENT MODEL - VERSION 5.1 (Build 5.1.013)
  --------------------------------------------------------------

     Aubrey Cornish Coarse Runoff Model 
     Catchments duplicated as to connectivity to CS or SRS - ratio lines proportion areas 
     Aubrey Cornish Coarse Extran Model - All outfalls as pumps with single dummy pipes 
  
  
  *********************************************************
  NOTE: The summary statistics displayed in this report are
  based on results found at every computational time step,  
  not just on results from each reporting time step.
  *********************************************************
  
  ****************
  Analysis Options
  ****************
  Flow Units ............... CMS
  Process Models:
    Rainfall/Runoff ........ YES
    RDII ................... NO
    Snowmelt ............... NO
    Groundwater ............ NO
    Flow Routing ........... YES
    Ponding Allowed ........ NO
    Water Quality .......... NO
  Infiltration Method ...... HORTON
  Flow Routing Method ...... DYNWAVE
  Surcharge Method ......... EXTRAN
  Starting Date ............ 01/01/1999 01:00:00
  Ending Date .............. 01/01/1999 05:00:00
  Antecedent Dry Days ...... 0.0
  Report Time Step ......... 00:00:30
  Wet Time Step ............ 00:01:00
  Dry Time Step ............ 00:10:00
  Routing Time Step ........ 30.00 sec
  Variable Time Step ....... YES
  Maximum Trials ........... 8
  Number of Threads ........ 1
  Head Tolerance ........... 0.001524 m
  
  
  **************************        Volume         Depth
  Runoff Quantity Continuity     hectare-m            mm
  **************************     ---------       -------
  Total Precipitation ......         0.000         0.000
  Evaporation Loss .........         0.000         0.000
  Infiltration Loss ........         0.000         0.000
  Surface Runoff ...........         0.000         0.000
  Final Storage ............         0.000         0.000
  Continuity Error (%) .....         0.000
  
  
  **************************        Volume        Volume
  Flow Routing Continuity        hectare-m      10^6 ltr
  **************************     ---------     ---------
  Dry Weather Inflow .......         0.000         0.000
  Wet Weather Inflow .......         0.000         0.000
  Groundwater Inflow .......         0.000         0.000
  RDII Inflow ..............         0.000         0.000
  External Inflow ..........         0.000         0.000
  External Outflow .........         0.000         0.000
  Flooding Loss ............         0.000         0.000
  Evaporation Loss .........         0.000         0.000
  Exfiltration Loss ........         0.000         0.000
  Initial Stored Volume ....         2.302        23.020
  Final Stored Volume ......         2.302        23.020
  Continuity Error (%) .....         0.000
  
  
  ***************************
  Time-Step Critical Elements
  ***************************
  None
  
  
  ********************************
  Highest Flow Instability Indexes
  ********************************
  All links are stable.
  
  
  ***************************
  Subcatchment Runoff Summary
  ***************************
  
  ------------------------------------------------------------------------------------------------------------------------------
                            Total      Total      Total      Total     Imperv       Perv      Total       Total     Peak  Runoff
                           Precip      Runon       Evap      Infil     Runoff     Runoff     Runoff      Runoff   Runoff   Coeff
  Subcatchment                 mm         mm         mm         mm         mm         mm         mm    10^6 ltr      CMS
  ------------------------------------------------------------------------------------------------------------------------------
  CMCPWIN                    0.00       0.00       0.00       0.00       0.00       0.00       0.00        0.00     0.00   0.000
  CMCPBAN                    0.00       0.00       0.00       0.00       0.00       0.00       0.00        0.00     0.00   0.000
  CMCPELG                    0.00       0.00       0.00       0.00       0.00       0.00       0.00        0.00     0.00   0.000
  CMCPPAC                    0.00       0.00       0.00       0.00       0.00       0.00       0.00        0.00     0.00   0.000
  CPAC72                     0.00       0.00       0.00       0.00       0.00       0.00       0.00        0.00     0.00   0.000
  CPAC75                     0.00       0.00       0.00       0.00       0.00       0.00       0.00        0.00     0.00   0.000
  CALEXAN                    0.00       0.00       0.00       0.00       0.00       0.00       0.00        0.00     0.00   0.000
  CLOG80                     0.00       0.00       0.00       0.00       0.00       0.00       0.00        0.00     0.00   0.000
  CHEN90                     0.00       0.00       0.00       0.00       0.00       0.00       0.00        0.00     0.00   0.000
  CHIGMAU                    0.00       0.00       0.00       0.00       0.00       0.00       0.00        0.00     0.00   0.000
  CHEN90-R                   0.00       0.00       0.00       0.00       0.00       0.00       0.00        0.00     0.00   0.000
  CHIGMAU-R                  0.00       0.00       0.00       0.00       0.00       0.00       0.00        0.00     0.00   0.000
  CMCPLOG                    0.00       0.00       0.00       0.00       0.00       0.00       0.00        0.00     0.00   0.000
  CLOGYEO                    0.00       0.00       0.00       0.00       0.00       0.00       0.00        0.00     0.00   0.000
  CLOGYEO-R                  0.00       0.00       0.00       0.00       0.00       0.00       0.00        0.00     0.00   0.000
  CLOGWNK                    0.00       0.00       0.00       0.00       0.00       0.00       0.00        0.00     0.00   0.000
  CLOGCEC-R                  0.00       0.00       0.00       0.00       0.00       0.00       0.00        0.00     0.00   0.000
  CLOGQUE-R                  0.00       0.00       0.00       0.00       0.00       0.00       0.00        0.00     0.00   0.000
  CLOGVIN-R                  0.00       0.00       0.00       0.00       0.00       0.00       0.00        0.00     0.00   0.000
  CLOGWNK-R                  0.00       0.00       0.00       0.00       0.00       0.00       0.00        0.00     0.00   0.000
  CLOGELE                    0.00       0.00       0.00       0.00       0.00       0.00       0.00        0.00     0.00   0.000
  CLOGVIN                    0.00       0.00       0.00       0.00       0.00       0.00       0.00        0.00     0.00   0.000
  CLOGQUE                    0.00       0.00       0.00       0.00       0.00       0.00       0.00        0.00     0.00   0.000
  CLOGCEC                    0.00       0.00       0.00       0.00       0.00       0.00       0.00        0.00     0.00   0.000
  CCECROY                    0.00       0.00       0.00       0.00       0.00       0.00       0.00        0.00     0.00   0.000
  SMCPWIN1                   0.00       0.00       0.00       0.00       0.00       0.00       0.00        0.00     0.00   0.000
  SMCPWIN2                   0.00       0.00       0.00       0.00       0.00       0.00       0.00        0.00     0.00   0.000
  SMCPBAN                    0.00       0.00       0.00       0.00       0.00       0.00       0.00        0.00     0.00   0.000
  SMCPELG                    0.00       0.00       0.00       0.00       0.00       0.00       0.00        0.00     0.00   0.000
  SMCPPAC                    0.00       0.00       0.00       0.00       0.00       0.00       0.00        0.00     0.00   0.000
  SPAC72                     0.00       0.00       0.00       0.00       0.00       0.00       0.00        0.00     0.00   0.000
  SPAC75                     0.00       0.00       0.00       0.00       0.00       0.00       0.00        0.00     0.00   0.000
  SXANALE                    0.00       0.00       0.00       0.00       0.00       0.00       0.00        0.00     0.00   0.000
  SLOG80                     0.00       0.00       0.00       0.00       0.00       0.00       0.00        0.00     0.00   0.000
  SHEN90                     0.00       0.00       0.00       0.00       0.00       0.00       0.00        0.00     0.00   0.000
  SHIGMAU                    0.00       0.00       0.00       0.00       0.00       0.00       0.00        0.00     0.00   0.000
  SHEN90-R                   0.00       0.00       0.00       0.00       0.00       0.00       0.00        0.00     0.00   0.000
  SHIGMAU-R                  0.00       0.00       0.00       0.00       0.00       0.00       0.00        0.00     0.00   0.000
  SMCPLOG                    0.00       0.00       0.00       0.00       0.00       0.00       0.00        0.00     0.00   0.000
  SLOGYEO                    0.00       0.00       0.00       0.00       0.00       0.00       0.00        0.00     0.00   0.000
  SLOGYEO-R                  0.00       0.00       0.00       0.00       0.00       0.00       0.00        0.00     0.00   0.000
  SLOGWNK                    0.00       0.00       0.00       0.00       0.00       0.00       0.00        0.00     0.00   0.000
  SLOGCEC-R                  0.00       0.00       0.00       0.00       0.00       0.00       0.00        0.00     0.00   0.000
  SLOGQUE-R                  0.00       0.00       0.00       0.00       0.00       0.00       0.00        0.00     0.00   0.000
  SLOGVIN-R                  0.00       0.00       0.00       0.00       0.00       0.00       0.00        0.00     0.00   0.000
  SLOGWNK-R                  0.00       0.00       0.00       0.00       0.00       0.00       0.00        0.00     0.00   0.000
  SLOGELE                    0.00       0.00       0.00       0.00       0.00       0.00       0.00        0.00     0.00   0.000
  SLOGVIN                    0.00       0.00       0.00       0.00       0.00       0.00       0.00        0.00     0.00   0.000
  SLOGQUE                    0.00       0.00       0.00       0.00       0.00       0.00       0.00        0.00     0.00   0.000
  SLOGCEC                    0.00       0.00       0.00       0.00       0.00       0.00       0.00        0.00     0.00   0.000
  SCECROY                    0.00       0.00       0.00       0.00       0.00       0.00       0.00        0.00     0.00   0.000
  CLIPSAR                    0.00       0.00       0.00       0.00       0.00       0.00       0.00        0.00     0.00   0.000
  CSARBUR                    0.00       0.00       0.00       0.00       0.00       0.00       0.00        0.00     0.00   0.000
  CSARARL                    0.00       0.00       0.00       0.00       0.00       0.00       0.00        0.00     0.00   0.000
  CLIPWEL                    0.00       0.00       0.00       0.00       0.00       0.00       0.00        0.00     0.00   0.000
  CWELSHB                    0.00       0.00       0.00       0.00       0.00       0.00       0.00        0.00     0.00   0.000
  CWELDOM                    0.00       0.00       0.00       0.00       0.00       0.00       0.00        0.00     0.00   0.000
  CLIPNOT                    0.00       0.00       0.00       0.00       0.00       0.00       0.00        0.00     0.00   0.000
  CNOTDOM                    0.00       0.00       0.00       0.00       0.00       0.00       0.00        0.00     0.00   0.000
  CNOTSHB                    0.00       0.00       0.00       0.00       0.00       0.00       0.00        0.00     0.00   0.000
  SLIPSAR                    0.00       0.00       0.00       0.00       0.00       0.00       0.00        0.00     0.00   0.000
  SSARBUR                    0.00       0.00       0.00       0.00       0.00       0.00       0.00        0.00     0.00   0.000
  SSARARL1                   0.00       0.00       0.00       0.00       0.00       0.00       0.00        0.00     0.00   0.000
  SSARARL2                   0.00       0.00       0.00       0.00       0.00       0.00       0.00        0.00     0.00   0.000
  SSARARL3                   0.00       0.00       0.00       0.00       0.00       0.00       0.00        0.00     0.00   0.000
  SLIPWEL1                   0.00       0.00       0.00       0.00       0.00       0.00       0.00        0.00     0.00   0.000
  SLIPWEL2                   0.00       0.00       0.00       0.00       0.00       0.00       0.00        0.00     0.00   0.000
  SWELSHB                    0.00       0.00       0.00       0.00       0.00       0.00       0.00        0.00     0.00   0.000
  SWELDOM                    0.00       0.00       0.00       0.00       0.00       0.00       0.00        0.00     0.00   0.000
  SLIPNOT1                   0.00       0.00       0.00       0.00       0.00       0.00       0.00        0.00     0.00   0.000
  SLIPNOT2                   0.00       0.00       0.00       0.00       0.00       0.00       0.00        0.00     0.00   0.000
  SNOTDOM1                   0.00       0.00       0.00       0.00       0.00       0.00       0.00        0.00     0.00   0.000
  SNOTDOM2                   0.00       0.00       0.00       0.00       0.00       0.00       0.00        0.00     0.00   0.000
  SNOTDOM3                   0.00       0.00       0.00       0.00       0.00       0.00       0.00        0.00     0.00   0.000
  SNOTSHB                    0.00       0.00       0.00       0.00       0.00       0.00       0.00        0.00     0.00   0.000
  CAUBPAL                    0.00       0.00       0.00       0.00       0.00       0.00       0.00        0.00     0.00   0.000
  CAUBWOL                    0.00       0.00       0.00       0.00       0.00       0.00       0.00        0.00     0.00   0.000
  CAUBWSM                    0.00       0.00       0.00       0.00       0.00       0.00       0.00        0.00     0.00   0.000
  CELCGRF                    0.00       0.00       0.00       0.00       0.00       0.00       0.00        0.00     0.00   0.000
  CELCING                    0.00       0.00       0.00       0.00       0.00       0.00       0.00        0.00     0.00   0.000
  CLIPELC                    0.00       0.00       0.00       0.00       0.00       0.00       0.00        0.00     0.00   0.000
  CLIPSMT                    0.00       0.00       0.00       0.00       0.00       0.00       0.00        0.00     0.00   0.000
  CPORBAN                    0.00       0.00       0.00       0.00       0.00       0.00       0.00        0.00     0.00   0.000
  CPORBUR                    0.00       0.00       0.00       0.00       0.00       0.00       0.00        0.00     0.00   0.000
  CPORDOM                    0.00       0.00       0.00       0.00       0.00       0.00       0.00        0.00     0.00   0.000
  CPORGRE                    0.00       0.00       0.00       0.00       0.00       0.00       0.00        0.00     0.00   0.000
  CPORLIP                    0.00       0.00       0.00       0.00       0.00       0.00       0.00        0.00     0.00   0.000
  CPORSHB                    0.00       0.00       0.00       0.00       0.00       0.00       0.00        0.00     0.00   0.000
  CPORSPR                    0.00       0.00       0.00       0.00       0.00       0.00       0.00        0.00     0.00   0.000
  CPORWLL                    0.00       0.00       0.00       0.00       0.00       0.00       0.00        0.00     0.00   0.000
  CSMTING                    0.00       0.00       0.00       0.00       0.00       0.00       0.00        0.00     0.00   0.000
  CSTMSHB                    0.00       0.00       0.00       0.00       0.00       0.00       0.00        0.00     0.00   0.000
  SAUBPAL                    0.00       0.00       0.00       0.00       0.00       0.00       0.00        0.00     0.00   0.000
  SAUBWOL                    0.00       0.00       0.00       0.00       0.00       0.00       0.00        0.00     0.00   0.000
  SELCGRF1                   0.00       0.00       0.00       0.00       0.00       0.00       0.00        0.00     0.00   0.000
  SELCGRF2                   0.00       0.00       0.00       0.00       0.00       0.00       0.00        0.00     0.00   0.000
  SELCING                    0.00       0.00       0.00       0.00       0.00       0.00       0.00        0.00     0.00   0.000
  SLIPELC                    0.00       0.00       0.00       0.00       0.00       0.00       0.00        0.00     0.00   0.000
  SLIPSMT1                   0.00       0.00       0.00       0.00       0.00       0.00       0.00        0.00     0.00   0.000
  SLIPSMT2                   0.00       0.00       0.00       0.00       0.00       0.00       0.00        0.00     0.00   0.000
  SPORBAN1                   0.00       0.00       0.00       0.00       0.00       0.00       0.00        0.00     0.00   0.000
  SPORBAN2                   0.00       0.00       0.00       0.00       0.00       0.00       0.00        0.00     0.00   0.000
  SPORBUR1                   0.00       0.00       0.00       0.00       0.00       0.00       0.00        0.00     0.00   0.000
  SPORBUR2                   0.00       0.00       0.00       0.00       0.00       0.00       0.00        0.00     0.00   0.000
  SPORBUR3                   0.00       0.00       0.00       0.00       0.00       0.00       0.00        0.00     0.00   0.000
  SPORBUR4                   0.00       0.00       0.00       0.00       0.00       0.00       0.00        0.00     0.00   0.000
  SPORDOM1                   0.00       0.00       0.00       0.00       0.00       0.00       0.00        0.00     0.00   0.000
  SPORDOM2                   0.00       0.00       0.00       0.00       0.00       0.00       0.00        0.00     0.00   0.000
  SPORDOM3                   0.00       0.00       0.00       0.00       0.00       0.00       0.00        0.00     0.00   0.000
  SPORDOM4                   0.00       0.00       0.00       0.00       0.00       0.00       0.00        0.00     0.00   0.000
  SPORGRE1                   0.00       0.00       0.00       0.00       0.00       0.00       0.00        0.00     0.00   0.000
  SPORGRE2                   0.00       0.00       0.00       0.00       0.00       0.00       0.00        0.00     0.00   0.000
  SPORGRE3                   0.00       0.00       0.00       0.00       0.00       0.00       0.00        0.00     0.00   0.000
  SPORGRE4                   0.00       0.00       0.00       0.00       0.00       0.00       0.00        0.00     0.00   0.000
  SPORLIP1                   0.00       0.00       0.00       0.00       0.00       0.00       0.00        0.00     0.00   0.000
  SPORLIP2                   0.00       0.00       0.00       0.00       0.00       0.00       0.00        0.00     0.00   0.000
  SPORSHB1                   0.00       0.00       0.00       0.00       0.00       0.00       0.00        0.00     0.00   0.000
  SPORSHB2                   0.00       0.00       0.00       0.00       0.00       0.00       0.00        0.00     0.00   0.000
  SPORSHB3                   0.00       0.00       0.00       0.00       0.00       0.00       0.00        0.00     0.00   0.000
  SPORSPR1                   0.00       0.00       0.00       0.00       0.00       0.00       0.00        0.00     0.00   0.000
  SPORSPR2                   0.00       0.00       0.00       0.00       0.00       0.00       0.00        0.00     0.00   0.000
  SPORSPR3                   0.00       0.00       0.00       0.00       0.00       0.00       0.00        0.00     0.00   0.000
  SPORWLL1                   0.00       0.00       0.00       0.00       0.00       0.00       0.00        0.00     0.00   0.000
  SPORWLL2                   0.00       0.00       0.00       0.00       0.00       0.00       0.00        0.00     0.00   0.000
  SPORWLL3                   0.00       0.00       0.00       0.00       0.00       0.00       0.00        0.00     0.00   0.000
  SSMTING1                   0.00       0.00       0.00       0.00       0.00       0.00       0.00        0.00     0.00   0.000
  SSMTING2                   0.00       0.00       0.00       0.00       0.00       0.00       0.00        0.00     0.00   0.000
  SSTMSHB1                   0.00       0.00       0.00       0.00       0.00       0.00       0.00        0.00     0.00   0.000
  SSTMSHB2                   0.00       0.00       0.00       0.00       0.00       0.00       0.00        0.00     0.00   0.000
  SSTMSHB3                   0.00       0.00       0.00       0.00       0.00       0.00       0.00        0.00     0.00   0.000
  CPORCAN                    0.00       0.00       0.00       0.00       0.00       0.00       0.00        0.00     0.00   0.000
  CPORHOM                    0.00       0.00       0.00       0.00       0.00       0.00       0.00        0.00     0.00   0.000
  CSIMSTM                    0.00       0.00       0.00       0.00       0.00       0.00       0.00        0.00     0.00   0.000
  CSIMELC                    0.00       0.00       0.00       0.00       0.00       0.00       0.00        0.00     0.00   0.000
  CSIMSAR                    0.00       0.00       0.00       0.00       0.00       0.00       0.00        0.00     0.00   0.000
  CSIMWEL                    0.00       0.00       0.00       0.00       0.00       0.00       0.00        0.00     0.00   0.000
  SPORCAN1                   0.00       0.00       0.00       0.00       0.00       0.00       0.00        0.00     0.00   0.000
  SPORCAN2                   0.00       0.00       0.00       0.00       0.00       0.00       0.00        0.00     0.00   0.000
  SPORHOM1                   0.00       0.00       0.00       0.00       0.00       0.00       0.00        0.00     0.00   0.000
  SPORHOM2                   0.00       0.00       0.00       0.00       0.00       0.00       0.00        0.00     0.00   0.000
  SSIMSTM1                   0.00       0.00       0.00       0.00       0.00       0.00       0.00        0.00     0.00   0.000
  SSIMSTM2                   0.00       0.00       0.00       0.00       0.00       0.00       0.00        0.00     0.00   0.000
  SSIMELC                    0.00       0.00       0.00       0.00       0.00       0.00       0.00        0.00     0.00   0.000
  SSIMSAR                    0.00       0.00       0.00       0.00       0.00       0.00       0.00        0.00     0.00   0.000
  SSIMWEL1                   0.00       0.00       0.00       0.00       0.00       0.00       0.00        0.00     0.00   0.000
  SSIMWEL2                   0.00       0.00       0.00       0.00       0.00       0.00       0.00        0.00     0.00   0.000
  CCORMID                    0.00       0.00       0.00       0.00       0.00       0.00       0.00        0.00     0.00   0.000
  CMRYCOR                    0.00       0.00       0.00       0.00       0.00       0.00       0.00        0.00     0.00   0.000
  CMRYWSM                    0.00       0.00       0.00       0.00       0.00       0.00       0.00        0.00     0.00   0.000
  CWALPUR                    0.00       0.00       0.00       0.00       0.00       0.00       0.00        0.00     0.00   0.000
  CWSMWAL                    0.00       0.00       0.00       0.00       0.00       0.00       0.00        0.00     0.00   0.000
  CWSMARL                    0.00       0.00       0.00       0.00       0.00       0.00       0.00        0.00     0.00   0.000
  CWSMCAN                    0.00       0.00       0.00       0.00       0.00       0.00       0.00        0.00     0.00   0.000
  CWSMETH                    0.00       0.00       0.00       0.00       0.00       0.00       0.00        0.00     0.00   0.000
  CCANPRE                    0.00       0.00       0.00       0.00       0.00       0.00       0.00        0.00     0.00   0.000
  SCORMID                    0.00       0.00       0.00       0.00       0.00       0.00       0.00        0.00     0.00   0.000
  SMRYCOR                    0.00       0.00       0.00       0.00       0.00       0.00       0.00        0.00     0.00   0.000
  SMRYWSM                    0.00       0.00       0.00       0.00       0.00       0.00       0.00        0.00     0.00   0.000
  SWALPUR                    0.00       0.00       0.00       0.00       0.00       0.00       0.00        0.00     0.00   0.000
  SWSMWAL1                   0.00       0.00       0.00       0.00       0.00       0.00       0.00        0.00     0.00   0.000
  SWSMWAL2                   0.00       0.00       0.00       0.00       0.00       0.00       0.00        0.00     0.00   0.000
  SWSMARL1                   0.00       0.00       0.00       0.00       0.00       0.00       0.00        0.00     0.00   0.000
  SWSMARL2                   0.00       0.00       0.00       0.00       0.00       0.00       0.00        0.00     0.00   0.000
  SWSMCAN1                   0.00       0.00       0.00       0.00       0.00       0.00       0.00        0.00     0.00   0.000
  SWSMCAN2                   0.00       0.00       0.00       0.00       0.00       0.00       0.00        0.00     0.00   0.000
  SWSMETH1                   0.00       0.00       0.00       0.00       0.00       0.00       0.00        0.00     0.00   0.000
  SWSMETH2                   0.00       0.00       0.00       0.00       0.00       0.00       0.00        0.00     0.00   0.000
  SCANPRE                    0.00       0.00       0.00       0.00       0.00       0.00       0.00        0.00     0.00   0.000
  
  
  ******************
  Node Depth Summary
  ******************
  
  ---------------------------------------------------------------------------------
                                 Average  Maximum  Maximum  Time of Max    Reported
                                   Depth    Depth      HGL   Occurrence   Max Depth
  Node                 Type       Meters   Meters   Meters  days hr:min      Meters
  ---------------------------------------------------------------------------------
  XCAUBPAL             JUNCTION  -nan(ind)     0.00   223.48     0  00:00        0.00
  CCOROUT1             JUNCTION  -nan(ind)     0.00   223.95     0  00:00        0.00
  XSRUBPAL             JUNCTION  -nan(ind)     0.00   221.50     0  00:00        0.00
  XSCANPAL             JUNCTION  -nan(ind)     0.00   222.28     0  00:00        0.00
  SCANOUT1             JUNCTION  -nan(ind)     0.00   222.26     0  00:00        0.00
  SAUBOUT              OUTFALL   -nan(ind)     0.00   221.00     0  00:00        0.00
  SCANOUT              OUTFALL   -nan(ind)     0.00   222.10     0  00:00        0.00
  SRUBOUT              OUTFALL   -nan(ind)     0.00   221.15     0  00:00        0.00
  CAUBOUT              OUTFALL   -nan(ind)     0.00   223.29     0  00:00        0.00
  CCOROUT              OUTFALL   -nan(ind)     0.00   223.85     0  00:00        0.00
  CMRYOUT              OUTFALL   -nan(ind)     0.00   223.39     0  00:00        0.00
  CALEXAN-I            STORAGE   -nan(ind)     0.00   225.87     0  00:00        0.00
  CAUBPAL-I            STORAGE   -nan(ind)     0.00   223.42     0  00:00        0.00
  CAUBPOR              STORAGE   -nan(ind)     0.00   223.85     0  00:00        0.00
  CAUBSPS              STORAGE   -nan(ind)     0.00   223.36     0  00:00        0.00
  CAUBWOL-I            STORAGE   -nan(ind)     0.00   223.59     0  00:00        0.00
  CAUBWSM-I            STORAGE   -nan(ind)     0.00   223.73     0  00:00        0.00
  CCANPRE-I            STORAGE   -nan(ind)     0.00   225.53     0  00:00        0.00
  CCECROY-I            STORAGE   -nan(ind)     0.00   227.70     0  00:00        0.00
  CCORDIV              STORAGE   -nan(ind)     0.00   223.95     0  00:00        0.00
  CCORMID-I            STORAGE   -nan(ind)     0.00   224.11     0  00:00        0.00
  CELCGRF-I            STORAGE   -nan(ind)     0.00   225.61     0  00:00        0.00
  CELCING-I            STORAGE   -nan(ind)     0.00   225.24     0  00:00        0.00
  CHEN90-I             STORAGE   -nan(ind)     0.00   226.03     0  00:00        0.00
  CHIGMAU-I            STORAGE   -nan(ind)     0.00   226.12     0  00:00        0.00
  CLIP25               STORAGE   -nan(ind)     0.00   224.06     0  00:00        0.00
  CLIP35               STORAGE   -nan(ind)     0.00   224.31     0  00:00        0.00
  CLIPELC-I            STORAGE   -nan(ind)     0.00   224.40     0  00:00        0.00
  CLIPNOT-I            STORAGE   -nan(ind)     0.00   225.07     0  00:00        0.00
  CLIPSAR-I            STORAGE   -nan(ind)     0.00   224.60     0  00:00        0.00
  CLIPSMT-I            STORAGE   -nan(ind)     0.00   224.22     0  00:00        0.00
  CLIPWEL-I            STORAGE   -nan(ind)     0.00   224.79     0  00:00        0.00
  CLIPYAR              STORAGE   -nan(ind)     0.00   224.90     0  00:00        0.00
  CLOG80-I             STORAGE   -nan(ind)     0.00   225.95     0  00:00        0.00
  CLOGCEC-I            STORAGE   -nan(ind)     0.00   227.24     0  00:00        0.00
  CLOGELE-I            STORAGE   -nan(ind)     0.00   226.63     0  00:00        0.00
  CLOGQUE-I            STORAGE   -nan(ind)     0.00   226.94     0  00:00        0.00
  CLOGVIN-I            STORAGE   -nan(ind)     0.00   226.82     0  00:00        0.00
  CLOGWNK-I            STORAGE   -nan(ind)     0.00   226.40     0  00:00        0.00
  CLOGYEO-I            STORAGE   -nan(ind)     0.00   226.19     0  00:00        0.00
  CMCPBAN-I            STORAGE   -nan(ind)     0.00   225.41     0  00:00        0.00
  CMCPELG-I            STORAGE   -nan(ind)     0.00   225.55     0  00:00        0.00
  CMCPLOG-I            STORAGE   -nan(ind)     0.00   225.98     0  00:00        0.00
  CMCPPAC-I            STORAGE   -nan(ind)     0.00   225.66     0  00:00        0.00
  CMCPROS              STORAGE   -nan(ind)     0.00   225.62     0  00:00        0.00
  CMCPWIN-I            STORAGE   -nan(ind)     0.00   225.21     0  00:00        0.00
  CMRYCOR-I            STORAGE   -nan(ind)     0.00   224.31     0  00:00        0.00
  CMRYCSO              STORAGE   -nan(ind)     0.00   223.40     0  00:00        0.00
  CMRYWSM-I            STORAGE   -nan(ind)     0.00   224.67     0  00:00        0.00
  CNOTDOM-I            STORAGE   -nan(ind)     0.00   226.44     0  00:00        0.00
  CNOTSHB-I            STORAGE   -nan(ind)     0.00   225.98     0  00:00        0.00
  CPAC72-I             STORAGE   -nan(ind)     0.00   226.85     0  00:00        0.00
  CPAC75-I             STORAGE   -nan(ind)     0.00   227.79     0  00:00        0.00
  CPORBAN-I            STORAGE   -nan(ind)     0.00   224.72     0  00:00        0.00
  CPORBUR-I            STORAGE   -nan(ind)     0.00   224.96     0  00:00        0.00
  CPORCAN-I            STORAGE   -nan(ind)     0.00   225.82     0  00:00        0.00
  CPORDOM-I            STORAGE   -nan(ind)     0.00   225.12     0  00:00        0.00
  CPORGRE-I            STORAGE   -nan(ind)     0.00   225.54     0  00:00        0.00
  CPORHOM-I            STORAGE   -nan(ind)     0.00   226.26     0  00:00        0.00
  CPORLIP-I            STORAGE   -nan(ind)     0.00   223.92     0  00:00        0.00
  CPORSHB-I            STORAGE   -nan(ind)     0.00   224.67     0  00:00        0.00
  CPORSPR-I            STORAGE   -nan(ind)     0.00   226.33     0  00:00        0.00
  CPORWLL-I            STORAGE   -nan(ind)     0.00   226.79     0  00:00        0.00
  CPREWAL              STORAGE   -nan(ind)     0.00   225.29     0  00:00        0.00
  CSARARL-I            STORAGE   -nan(ind)     0.00   226.05     0  00:00        0.00
  CSARBUR-I            STORAGE   -nan(ind)     0.00   225.56     0  00:00        0.00
  CSIMELC-I            STORAGE   -nan(ind)     0.00   227.20     0  00:00        0.00
  CSIMPOR              STORAGE   -nan(ind)     0.00   225.95     0  00:00        0.00
  CSIMSAR-I            STORAGE   -nan(ind)     0.00   227.69     0  00:00        0.00
  CSIMSTM-I            STORAGE   -nan(ind)     0.00   226.57     0  00:00        0.00
  CSIMWEL-I            STORAGE   -nan(ind)     0.00   228.66     0  00:00        0.00
  CSMTING-I            STORAGE   -nan(ind)     0.00   225.37     0  00:00        0.00
  CSTMSHB-I            STORAGE   -nan(ind)     0.00   225.58     0  00:00        0.00
  CWALPUR-I            STORAGE   -nan(ind)     0.00   225.11     0  00:00        0.00
  CWELDOM-I            STORAGE   -nan(ind)     0.00   226.82     0  00:00        0.00
  CWELSHB-I            STORAGE   -nan(ind)     0.00   226.33     0  00:00        0.00
  CWSMARL-I            STORAGE   -nan(ind)     0.00   226.54     0  00:00        0.00
  CWSMCAN-I            STORAGE   -nan(ind)     0.00   225.96     0  00:00        0.00
  CWSMETH-I            STORAGE   -nan(ind)     0.00   226.28     0  00:00        0.00
  CWSMWAL-I            STORAGE   -nan(ind)     0.00   225.59     0  00:00        0.00
  SALEMAU-I            STORAGE   -nan(ind)     0.00   224.44     0  00:00        0.00
  SALVNOT-I            STORAGE   -nan(ind)     0.00   223.62     0  00:00        0.00
  SALVSAR-I            STORAGE   -nan(ind)     0.00   222.96     0  00:00        0.00
  SALVWEL-I            STORAGE   -nan(ind)     0.00   223.20     0  00:00        0.00
  SBUR28               STORAGE   -nan(ind)     0.00   222.25     0  00:00        0.00
  SBUREIN-I            STORAGE   -nan(ind)     0.00   222.16     0  00:00        0.00
  SBURELC-I            STORAGE   -nan(ind)     0.00   222.74     0  00:00        0.00
  SBURPOR-I            STORAGE   -nan(ind)     0.00   222.03     0  00:00        0.00
  SBURSMT-I            STORAGE   -nan(ind)     0.00   222.56     0  00:00        0.00
  SCANPAL              STORAGE   -nan(ind)     0.00   222.26     0  00:00        0.00
  SCANPRE-I            STORAGE   -nan(ind)     0.00   222.95     0  00:00        0.00
  SCANWOL-I            STORAGE   -nan(ind)     0.00   222.41     0  00:00        0.00
  SCANWSM-I            STORAGE   -nan(ind)     0.00   222.58     0  00:00        0.00
  SDUM1-I              STORAGE   -nan(ind)     0.00   225.44     0  00:00        0.00
  SDUM2-I              STORAGE   -nan(ind)     0.00   225.86     0  00:00        0.00
  SDUM3-I              STORAGE   -nan(ind)     0.00   226.99     0  00:00        0.00
  SDUM4                STORAGE   -nan(ind)     0.00   224.70     0  00:00        0.00
  SDUM5                STORAGE   -nan(ind)     0.00   224.39     0  00:00        0.00
  SELCDOM-I            STORAGE   -nan(ind)     0.00   225.76     0  00:00        0.00
  SLARWIL-I            STORAGE   -nan(ind)     0.00   223.96     0  00:00        0.00
  SLENWSM-I            STORAGE   -nan(ind)     0.00   221.77     0  00:00        0.00
  SMAULOG-I            STORAGE   -nan(ind)     0.00   224.55     0  00:00        0.00
  SMCP85-I             STORAGE   -nan(ind)     0.00   225.02     0  00:00        0.00
  SMCPMCD-I            STORAGE   -nan(ind)     0.00   223.82     0  00:00        0.00
  SMCPNOT              STORAGE   -nan(ind)     0.00   223.74     0  00:00        0.00
  SMYRWIN-I            STORAGE   -nan(ind)     0.00   224.56     0  00:00        0.00
  SNOTMYR-I            STORAGE   -nan(ind)     0.00   224.40     0  00:00        0.00
  SNOTWLL-I            STORAGE   -nan(ind)     0.00   226.15     0  00:00        0.00
  SPORDOM-I            STORAGE   -nan(ind)     0.00   223.34     0  00:00        0.00
  SPORGRE-I            STORAGE   -nan(ind)     0.00   223.81     0  00:00        0.00
  SPORSHB-I            STORAGE   -nan(ind)     0.00   221.67     0  00:00        0.00
  SPORSPR-I            STORAGE   -nan(ind)     0.00   224.12     0  00:00        0.00
  SPORWLL-I            STORAGE   -nan(ind)     0.00   224.52     0  00:00        0.00
  SRUB02               STORAGE   -nan(ind)     0.00   221.24     0  00:00        0.00
  SRUBPAL-I            STORAGE   -nan(ind)     0.00   221.46     0  00:00        0.00
  SRUBWOL-I            STORAGE   -nan(ind)     0.00   221.59     0  00:00        0.00
  SSHB33               STORAGE   -nan(ind)     0.00   222.62     0  00:00        0.00
  SSHB54-I             STORAGE   -nan(ind)     0.00   223.85     0  00:00        0.00
  SSHBELC-I            STORAGE   -nan(ind)     0.00   222.76     0  00:00        0.00
  SSHBNOT-I            STORAGE   -nan(ind)     0.00   224.07     0  00:00        0.00
  SSHBPAL-I            STORAGE   -nan(ind)     0.00   221.23     0  00:00        0.00
  SSHBSAR-I            STORAGE   -nan(ind)     0.00   223.07     0  00:00        0.00
  SSHBSTM-I            STORAGE   -nan(ind)     0.00   222.38     0  00:00        0.00
  SSHBWEL-I            STORAGE   -nan(ind)     0.00   223.47     0  00:00        0.00
  SSHBWLV-I            STORAGE   -nan(ind)     0.00   221.98     0  00:00        0.00
  SSHBWSM-I            STORAGE   -nan(ind)     0.00   221.44     0  00:00        0.00
  SSIMELC-I            STORAGE   -nan(ind)     0.00   224.70     0  00:00        0.00
  SSIMPOR-I            STORAGE   -nan(ind)     0.00   223.51     0  00:00        0.00
  SSIMSAR-I            STORAGE   -nan(ind)     0.00   225.73     0  00:00        0.00
  SSIMSTM-I            STORAGE   -nan(ind)     0.00   224.15     0  00:00        0.00
  SSIMWEL-I            STORAGE   -nan(ind)     0.00   226.24     0  00:00        0.00
  SSTMARL-I            STORAGE   -nan(ind)     0.00   224.55     0  00:00        0.00
  SSTMDOM-I            STORAGE   -nan(ind)     0.00   224.21     0  00:00        0.00
  SWELDOM-I            STORAGE   -nan(ind)     0.00   225.14     0  00:00        0.00
  SWELMRY-I            STORAGE   -nan(ind)     0.00   226.80     0  00:00        0.00
  SWELVIC-I            STORAGE   -nan(ind)     0.00   226.54     0  00:00        0.00
  SWOLHOM-I            STORAGE   -nan(ind)     0.00   223.90     0  00:00        0.00
  SWSMARL-I            STORAGE   -nan(ind)     0.00   224.64     0  00:00        0.00
  SWSMHOM-I            STORAGE   -nan(ind)     0.00   224.20     0  00:00        0.00
  SXANALE-I            STORAGE   -nan(ind)     0.00   224.34     0  00:00        0.00
  SXANELG-I            STORAGE   -nan(ind)     0.00   224.08     0  00:00        0.00
  
  
  *******************
  Node Inflow Summary
  *******************
  
  -------------------------------------------------------------------------------------------------
                                  Maximum  Maximum                  Lateral       Total        Flow
                                  Lateral    Total  Time of Max      Inflow      Inflow     Balance
                                   Inflow   Inflow   Occurrence      Volume      Volume       Error
  Node                 Type           CMS      CMS  days hr:min    10^6 ltr    10^6 ltr     Percent
  -------------------------------------------------------------------------------------------------
  XCAUBPAL             JUNCTION     0.000    0.000     0  00:00           0           0       0.000 ltr
  CCOROUT1             JUNCTION     0.000    0.000     0  00:00           0           0       0.000 ltr
  XSRUBPAL             JUNCTION     0.000    0.000     0  00:00           0           0       0.000 ltr
  XSCANPAL             JUNCTION     0.000    0.000     0  00:00           0           0       0.000 ltr
  SCANOUT1             JUNCTION     0.000    0.000     0  00:00           0           0       0.000 ltr
  SAUBOUT              OUTFALL      0.000    0.000     0  00:00           0           0       0.000 ltr
  SCANOUT              OUTFALL      0.000    0.000     0  00:00           0           0       0.000 ltr
  SRUBOUT              OUTFALL      0.000    0.000     0  00:00           0           0       0.000 ltr
  CAUBOUT              OUTFALL      0.000    0.000     0  00:00           0           0       0.000 ltr
  CCOROUT              OUTFALL      0.000    0.000     0  00:00           0           0       0.000 ltr
  CMRYOUT              OUTFALL      0.000    0.000     0  00:00           0           0       0.000 ltr
  CALEXAN-I            STORAGE      0.000    0.000     0  00:00           0           0       0.000 ltr
  CAUBPAL-I            STORAGE      0.000    0.000     0  00:00           0    0.000331       0.000
  CAUBPOR              STORAGE      0.000    0.000     0  00:00           0           0       0.000 ltr
  CAUBSPS              STORAGE      0.000    0.000     0  00:00           0    0.000413       0.000
  CAUBWOL-I            STORAGE      0.000    0.000     0  00:00           0    0.000133       0.000
  CAUBWSM-I            STORAGE      0.000    0.000     0  00:00           0           0       0.000 ltr
  CCANPRE-I            STORAGE      0.000    0.000     0  00:00           0           0       0.000 ltr
  CCECROY-I            STORAGE      0.000    0.000     0  00:00           0           0       0.000 ltr
  CCORDIV              STORAGE      0.000    0.000     0  00:00           0           0       0.000 ltr
  CCORMID-I            STORAGE      0.000    0.000     0  00:00           0           0       0.000 ltr
  CELCGRF-I            STORAGE      0.000    0.000     0  00:00           0           0       0.000 ltr
  CELCING-I            STORAGE      0.000    0.000     0  00:00           0           0       0.000 ltr
  CHEN90-I             STORAGE      0.000    0.000     0  00:00           0           0       0.000 ltr
  CHIGMAU-I            STORAGE      0.000    0.000     0  00:00           0           0       0.000 ltr
  CLIP25               STORAGE      0.000    0.000     0  00:00           0           0       0.000 ltr
  CLIP35               STORAGE      0.000    0.000     0  00:00           0           0       0.000 ltr
  CLIPELC-I            STORAGE      0.000    0.000     0  00:00           0           0       0.000 ltr
  CLIPNOT-I            STORAGE      0.000    0.000     0  00:00           0           0       0.000 ltr
  CLIPSAR-I            STORAGE      0.000    0.000     0  00:00           0           0       0.000 ltr
  CLIPSMT-I            STORAGE      0.000    0.000     0  00:00           0           0       0.000 ltr
  CLIPWEL-I            STORAGE      0.000    0.000     0  00:00           0           0       0.000 ltr
  CLIPYAR              STORAGE      0.000    0.000     0  00:00           0           0       0.000 ltr
  CLOG80-I             STORAGE      0.000    0.000     0  00:00           0           0       0.000 ltr
  CLOGCEC-I            STORAGE      0.000    0.000     0  00:00           0           0       0.000 ltr
  CLOGELE-I            STORAGE      0.000    0.000     0  00:00           0           0       0.000 ltr
  CLOGQUE-I            STORAGE      0.000    0.000     0  00:00           0           0       0.000 ltr
  CLOGVIN-I            STORAGE      0.000    0.000     0  00:00           0           0       0.000 ltr
  CLOGWNK-I            STORAGE      0.000    0.000     0  00:00           0           0       0.000 ltr
  CLOGYEO-I            STORAGE      0.000    0.000     0  00:00           0           0       0.000 ltr
  CMCPBAN-I            STORAGE      0.000    0.000     0  00:00           0           0       0.000 ltr
  CMCPELG-I            STORAGE      0.000    0.000     0  00:00           0           0       0.000 ltr
  CMCPLOG-I            STORAGE      0.000    0.000     0  00:00           0           0       0.000 ltr
  CMCPPAC-I            STORAGE      0.000    0.000     0  00:00           0           0       0.000 ltr
  CMCPROS              STORAGE      0.000    0.000     0  00:00           0           0       0.000 ltr
  CMCPWIN-I            STORAGE      0.000    0.000     0  00:00           0           0       0.000 ltr
  CMRYCOR-I            STORAGE      0.000    0.000     0  00:00           0           0       0.000 ltr
  CMRYCSO              STORAGE      0.000    0.000     0  00:00           0    0.000364       0.000
  CMRYWSM-I            STORAGE      0.000    0.000     0  00:00           0           0       0.000 ltr
  CNOTDOM-I            STORAGE      0.000    0.000     0  00:00           0           0       0.000 ltr
  CNOTSHB-I            STORAGE      0.000    0.000     0  00:00           0           0       0.000 ltr
  CPAC72-I             STORAGE      0.000    0.000     0  00:00           0           0       0.000 ltr
  CPAC75-I             STORAGE      0.000    0.000     0  00:00           0           0       0.000 ltr
  CPORBAN-I            STORAGE      0.000    0.000     0  00:00           0           0       0.000 ltr
  CPORBUR-I            STORAGE      0.000    0.000     0  00:00           0           0       0.000 ltr
  CPORCAN-I            STORAGE      0.000    0.000     0  00:00           0           0       0.000 ltr
  CPORDOM-I            STORAGE      0.000    0.000     0  00:00           0           0       0.000 ltr
  CPORGRE-I            STORAGE      0.000    0.000     0  00:00           0           0       0.000 ltr
  CPORHOM-I            STORAGE      0.000    0.000     0  00:00           0           0       0.000 ltr
  CPORLIP-I            STORAGE      0.000    0.000     0  00:00           0           0       0.000 ltr
  CPORSHB-I            STORAGE      0.000    0.000     0  00:00           0           0       0.000 ltr
  CPORSPR-I            STORAGE      0.000    0.000     0  00:00           0           0       0.000 ltr
  CPORWLL-I            STORAGE      0.000    0.000     0  00:00           0           0       0.000 ltr
  CPREWAL              STORAGE      0.000    0.000     0  00:00           0           0       0.000 ltr
  CSARARL-I            STORAGE      0.000    0.000     0  00:00           0           0       0.000 ltr
  CSARBUR-I            STORAGE      0.000    0.000     0  00:00           0           0       0.000 ltr
  CSIMELC-I            STORAGE      0.000    0.000     0  00:00           0           0       0.000 ltr
  CSIMPOR              STORAGE      0.000    0.000     0  00:00           0           0       0.000 ltr
  CSIMSAR-I            STORAGE      0.000    0.000     0  00:00           0           0       0.000 ltr
  CSIMSTM-I            STORAGE      0.000    0.000     0  00:00           0           0       0.000 ltr
  CSIMWEL-I            STORAGE      0.000    0.000     0  00:00           0           0       0.000 ltr
  CSMTING-I            STORAGE      0.000    0.000     0  00:00           0           0       0.000 ltr
  CSTMSHB-I            STORAGE      0.000    0.000     0  00:00           0           0       0.000 ltr
  CWALPUR-I            STORAGE      0.000    0.000     0  00:00           0           0       0.000 ltr
  CWELDOM-I            STORAGE      0.000    0.000     0  00:00           0           0       0.000 ltr
  CWELSHB-I            STORAGE      0.000    0.000     0  00:00           0           0       0.000 ltr
  CWSMARL-I            STORAGE      0.000    0.000     0  00:00           0           0       0.000 ltr
  CWSMCAN-I            STORAGE      0.000    0.000     0  00:00           0           0       0.000 ltr
  CWSMETH-I            STORAGE      0.000    0.000     0  00:00           0           0       0.000 ltr
  CWSMWAL-I            STORAGE      0.000    0.000     0  00:00           0           0       0.000 ltr
  SALEMAU-I            STORAGE      0.000    0.000     0  00:00           0           0       0.000 ltr
  SALVNOT-I            STORAGE      0.000    0.000     0  00:00           0     9.6e-05       0.000
  SALVSAR-I            STORAGE      0.000    0.000     0  00:00           0    0.000888       0.000
  SALVWEL-I            STORAGE      0.000    0.000     0  00:00           0      0.0006       0.000
  SBUR28               STORAGE      0.000    0.000     0  00:00           0     0.00174       0.000
  SBUREIN-I            STORAGE      0.000    0.000     0  00:00           0     0.00185       0.000
  SBURELC-I            STORAGE      0.000    0.000     0  00:00           0     0.00115       0.000
  SBURPOR-I            STORAGE      0.000    0.000     0  00:00           0       0.002       0.000
  SBURSMT-I            STORAGE      0.000    0.000     0  00:00           0     0.00137       0.000
  SCANPAL              STORAGE      0.000    0.000     0  00:00           0     0.00173       0.000
  SCANPRE-I            STORAGE      0.000    0.000     0  00:00           0      0.0009       0.000
  SCANWOL-I            STORAGE      0.000    0.000     0  00:00           0     0.00155       0.000
  SCANWSM-I            STORAGE      0.000    0.000     0  00:00           0     0.00134       0.000
  SDUM1-I              STORAGE      0.000    0.000     0  00:00           0           0       0.000 ltr
  SDUM2-I              STORAGE      0.000    0.000     0  00:00           0           0       0.000 ltr
  SDUM3-I              STORAGE      0.000    0.000     0  00:00           0           0       0.000 ltr
  SDUM4                STORAGE      0.000    0.000     0  00:00           0           0       0.000 ltr
  SDUM5                STORAGE      0.000    0.000     0  00:00           0           0       0.000 ltr
  SELCDOM-I            STORAGE      0.000    0.000     0  00:00           0           0       0.000 ltr
  SLARWIL-I            STORAGE      0.000    0.000     0  00:00           0           0       0.000 ltr
  SLENWSM-I            STORAGE      0.000    0.000     0  00:00           0     0.00232       0.000
  SMAULOG-I            STORAGE      0.000    0.000     0  00:00           0           0       0.000 ltr
  SMCP85-I             STORAGE      0.000    0.000     0  00:00           0           0       0.000 ltr
  SMCPMCD-I            STORAGE      0.000    0.000     0  00:00           0           0       0.000 ltr
  SMCPNOT              STORAGE      0.000    0.000     0  00:00           0           0       0.000 ltr
  SMYRWIN-I            STORAGE      0.000    0.000     0  00:00           0           0       0.000 ltr
  SNOTMYR-I            STORAGE      0.000    0.000     0  00:00           0           0       0.000 ltr
  SNOTWLL-I            STORAGE      0.000    0.000     0  00:00           0           0       0.000 ltr
  SPORDOM-I            STORAGE      0.000    0.000     0  00:00           0     0.00043       0.000
  SPORGRE-I            STORAGE      0.000    0.000     0  00:00           0           0       0.000 ltr
  SPORSHB-I            STORAGE      0.000    0.000     0  00:00           0     0.00244       0.000
  SPORSPR-I            STORAGE      0.000    0.000     0  00:00           0           0       0.000 ltr
  SPORWLL-I            STORAGE      0.000    0.000     0  00:00           0           0       0.000 ltr
  SRUB02               STORAGE      0.000    0.000     0  00:00           0     0.00529       0.000
  SRUBPAL-I            STORAGE      0.000    0.000     0  00:00           0     0.00286       0.000
  SRUBWOL-I            STORAGE      0.000    0.000     0  00:00           0     0.00253       0.000
  SSHB33               STORAGE      0.000    0.000     0  00:00           0      0.0013       0.000
  SSHB54-I             STORAGE      0.000    0.000     0  00:00           0           0       0.000 ltr
  SSHBELC-I            STORAGE      0.000    0.000     0  00:00           0     0.00113       0.000
  SSHBNOT-I            STORAGE      0.000    0.000     0  00:00           0           0       0.000 ltr
  SSHBPAL-I            STORAGE      0.000    0.000     0  00:00           0     0.00412       0.000
  SSHBSAR-I            STORAGE      0.000    0.000     0  00:00           0    0.000756       0.000
  SSHBSTM-I            STORAGE      0.000    0.000     0  00:00           0     0.00158       0.000
  SSHBWEL-I            STORAGE      0.000    0.000     0  00:00           0    0.000276       0.000
  SSHBWLV-I            STORAGE      0.000    0.000     0  00:00           0     0.00206       0.000
  SSHBWSM-I            STORAGE      0.000    0.000     0  00:00           0     0.00271       0.000
  SSIMELC-I            STORAGE      0.000    0.000     0  00:00           0           0       0.000 ltr
  SSIMPOR-I            STORAGE      0.000    0.000     0  00:00           0    0.000228       0.000
  SSIMSAR-I            STORAGE      0.000    0.000     0  00:00           0           0       0.000 ltr
  SSIMSTM-I            STORAGE      0.000    0.000     0  00:00           0           0       0.000 ltr
  SSIMWEL-I            STORAGE      0.000    0.000     0  00:00           0           0       0.000 ltr
  SSTMARL-I            STORAGE      0.000    0.000     0  00:00           0           0       0.000 ltr
  SSTMDOM-I            STORAGE      0.000    0.000     0  00:00           0           0       0.000 ltr
  SWELDOM-I            STORAGE      0.000    0.000     0  00:00           0           0       0.000 ltr
  SWELMRY-I            STORAGE      0.000    0.000     0  00:00           0           0       0.000 ltr
  SWELVIC-I            STORAGE      0.000    0.000     0  00:00           0           0       0.000 ltr
  SWOLHOM-I            STORAGE      0.000    0.000     0  00:00           0           0       0.000 ltr
  SWSMARL-I            STORAGE      0.000    0.000     0  00:00           0           0       0.000 ltr
  SWSMHOM-I            STORAGE      0.000    0.000     0  00:00           0           0       0.000 ltr
  SXANALE-I            STORAGE      0.000    0.000     0  00:00           0           0       0.000 ltr
  SXANELG-I            STORAGE      0.000    0.000     0  00:00           0           0       0.000 ltr
  
  
  **********************
  Node Surcharge Summary
  **********************
  
  No nodes were surcharged.
  
  
  *********************
  Node Flooding Summary
  *********************
  
  No nodes were flooded.
  
  
  **********************
  Storage Volume Summary
  **********************
  
  --------------------------------------------------------------------------------------------------
                         Average     Avg  Evap Exfil       Maximum     Max    Time of Max    Maximum
                          Volume    Pcnt  Pcnt  Pcnt        Volume    Pcnt     Occurrence    Outflow
  Storage Unit           1000 m3    Full  Loss  Loss       1000 m3    Full    days hr:min        CMS
  --------------------------------------------------------------------------------------------------
  CALEXAN-I            -nan(ind)    -nan(ind)     0     0         0.000       0       0  00:00      0.000
  CAUBPAL-I            -nan(ind)    -nan(ind)     0     0         0.000       0       0  00:00      0.000
  CAUBPOR              -nan(ind)    -nan(ind)     0     0         0.000       0       0  00:00      0.000
  CAUBSPS              -nan(ind)    -nan(ind)     0     0         0.000       0       0  00:00      0.000
  CAUBWOL-I            -nan(ind)    -nan(ind)     0     0         0.000       0       0  00:00      0.000
  CAUBWSM-I            -nan(ind)    -nan(ind)     0     0         0.000       0       0  00:00      0.000
  CCANPRE-I            -nan(ind)    -nan(ind)     0     0         0.000       0       0  00:00      0.000
  CCECROY-I            -nan(ind)    -nan(ind)     0     0         0.000       0       0  00:00      0.000
  CCORDIV              -nan(ind)    -nan(ind)     0     0         0.000       0       0  00:00      0.000
  CCORMID-I            -nan(ind)    -nan(ind)     0     0         0.000       0       0  00:00      0.000
  CELCGRF-I            -nan(ind)    -nan(ind)     0     0         0.000       0       0  00:00      0.000
  CELCING-I            -nan(ind)    -nan(ind)     0     0         0.000       0       0  00:00      0.000
  CHEN90-I             -nan(ind)    -nan(ind)     0     0         0.000       0       0  00:00      0.000
  CHIGMAU-I            -nan(ind)    -nan(ind)     0     0         0.000       0       0  00:00      0.000
  CLIP25               -nan(ind)    -nan(ind)     0     0         0.000       0       0  00:00      0.000
  CLIP35               -nan(ind)    -nan(ind)     0     0         0.000       0       0  00:00      0.000
  CLIPELC-I            -nan(ind)    -nan(ind)     0     0         0.000       0       0  00:00      0.000
  CLIPNOT-I            -nan(ind)    -nan(ind)     0     0         0.000       0       0  00:00      0.000
  CLIPSAR-I            -nan(ind)    -nan(ind)     0     0         0.000       0       0  00:00      0.000
  CLIPSMT-I            -nan(ind)    -nan(ind)     0     0         0.000       0       0  00:00      0.000
  CLIPWEL-I            -nan(ind)    -nan(ind)     0     0         0.000       0       0  00:00      0.000
  CLIPYAR              -nan(ind)    -nan(ind)     0     0         0.000       0       0  00:00      0.000
  CLOG80-I             -nan(ind)    -nan(ind)     0     0         0.000       0       0  00:00      0.000
  CLOGCEC-I            -nan(ind)    -nan(ind)     0     0         0.000       0       0  00:00      0.000
  CLOGELE-I            -nan(ind)    -nan(ind)     0     0         0.000       0       0  00:00      0.000
  CLOGQUE-I            -nan(ind)    -nan(ind)     0     0         0.000       0       0  00:00      0.000
  CLOGVIN-I            -nan(ind)    -nan(ind)     0     0         0.000       0       0  00:00      0.000
  CLOGWNK-I            -nan(ind)    -nan(ind)     0     0         0.000       0       0  00:00      0.000
  CLOGYEO-I            -nan(ind)    -nan(ind)     0     0         0.000       0       0  00:00      0.000
  CMCPBAN-I            -nan(ind)    -nan(ind)     0     0         0.000       0       0  00:00      0.000
  CMCPELG-I            -nan(ind)    -nan(ind)     0     0         0.000       0       0  00:00      0.000
  CMCPLOG-I            -nan(ind)    -nan(ind)     0     0         0.000       0       0  00:00      0.000
  CMCPPAC-I            -nan(ind)    -nan(ind)     0     0         0.000       0       0  00:00      0.000
  CMCPROS              -nan(ind)    -nan(ind)     0     0         0.000       0       0  00:00      0.000
  CMCPWIN-I            -nan(ind)    -nan(ind)     0     0         0.000       0       0  00:00      0.000
  CMRYCOR-I            -nan(ind)    -nan(ind)     0     0         0.000       0       0  00:00      0.000
  CMRYCSO              -nan(ind)    -nan(ind)     0     0         0.000       0       0  00:00      0.000
  CMRYWSM-I            -nan(ind)    -nan(ind)     0     0         0.000       0       0  00:00      0.000
  CNOTDOM-I            -nan(ind)    -nan(ind)     0     0         0.000       0       0  00:00      0.000
  CNOTSHB-I            -nan(ind)    -nan(ind)     0     0         0.000       0       0  00:00      0.000
  CPAC72-I             -nan(ind)    -nan(ind)     0     0         0.000       0       0  00:00      0.000
  CPAC75-I             -nan(ind)    -nan(ind)     0     0         0.000       0       0  00:00      0.000
  CPORBAN-I            -nan(ind)    -nan(ind)     0     0         0.000       0       0  00:00      0.000
  CPORBUR-I            -nan(ind)    -nan(ind)     0     0         0.000       0       0  00:00      0.000
  CPORCAN-I            -nan(ind)    -nan(ind)     0     0         0.000       0       0  00:00      0.000
  CPORDOM-I            -nan(ind)    -nan(ind)     0     0         0.000       0       0  00:00      0.000
  CPORGRE-I            -nan(ind)    -nan(ind)     0     0         0.000       0       0  00:00      0.000
  CPORHOM-I            -nan(ind)    -nan(ind)     0     0         0.000       0       0  00:00      0.000
  CPORLIP-I            -nan(ind)    -nan(ind)     0     0         0.000       0       0  00:00      0.000
  CPORSHB-I            -nan(ind)    -nan(ind)     0     0         0.000       0       0  00:00      0.000
  CPORSPR-I            -nan(ind)    -nan(ind)     0     0         0.000       0       0  00:00      0.000
  CPORWLL-I            -nan(ind)    -nan(ind)     0     0         0.000       0       0  00:00      0.000
  CPREWAL              -nan(ind)    -nan(ind)     0     0         0.000       0       0  00:00      0.000
  CSARARL-I            -nan(ind)    -nan(ind)     0     0         0.000       0       0  00:00      0.000
  CSARBUR-I            -nan(ind)    -nan(ind)     0     0         0.000       0       0  00:00      0.000
  CSIMELC-I            -nan(ind)    -nan(ind)     0     0         0.000       0       0  00:00      0.000
  CSIMPOR              -nan(ind)    -nan(ind)     0     0         0.000       0       0  00:00      0.000
  CSIMSAR-I            -nan(ind)    -nan(ind)     0     0         0.000       0       0  00:00      0.000
  CSIMSTM-I            -nan(ind)    -nan(ind)     0     0         0.000       0       0  00:00      0.000
  CSIMWEL-I            -nan(ind)    -nan(ind)     0     0         0.000       0       0  00:00      0.000
  CSMTING-I            -nan(ind)    -nan(ind)     0     0         0.000       0       0  00:00      0.000
  CSTMSHB-I            -nan(ind)    -nan(ind)     0     0         0.000       0       0  00:00      0.000
  CWALPUR-I            -nan(ind)    -nan(ind)     0     0         0.000       0       0  00:00      0.000
  CWELDOM-I            -nan(ind)    -nan(ind)     0     0         0.000       0       0  00:00      0.000
  CWELSHB-I            -nan(ind)    -nan(ind)     0     0         0.000       0       0  00:00      0.000
  CWSMARL-I            -nan(ind)    -nan(ind)     0     0         0.000       0       0  00:00      0.000
  CWSMCAN-I            -nan(ind)    -nan(ind)     0     0         0.000       0       0  00:00      0.000
  CWSMETH-I            -nan(ind)    -nan(ind)     0     0         0.000       0       0  00:00      0.000
  CWSMWAL-I            -nan(ind)    -nan(ind)     0     0         0.000       0       0  00:00      0.000
  SALEMAU-I            -nan(ind)    -nan(ind)     0     0         0.000       0       0  00:00      0.000
  SALVNOT-I            -nan(ind)    -nan(ind)     0     0         0.000       0       0  00:00      0.000
  SALVSAR-I            -nan(ind)    -nan(ind)     0     0         0.000       0       0  00:00      0.000
  SALVWEL-I            -nan(ind)    -nan(ind)     0     0         0.000       0       0  00:00      0.000
  SBUR28               -nan(ind)    -nan(ind)     0     0         0.000       0       0  00:00      0.000
  SBUREIN-I            -nan(ind)    -nan(ind)     0     0         0.000       0       0  00:00      0.000
  SBURELC-I            -nan(ind)    -nan(ind)     0     0         0.000       0       0  00:00      0.000
  SBURPOR-I            -nan(ind)    -nan(ind)     0     0         0.000       0       0  00:00      0.000
  SBURSMT-I            -nan(ind)    -nan(ind)     0     0         0.000       0       0  00:00      0.000
  SCANPAL              -nan(ind)    -nan(ind)     0     0         0.000       0       0  00:00      0.000
  SCANPRE-I            -nan(ind)    -nan(ind)     0     0         0.000       0       0  00:00      0.000
  SCANWOL-I            -nan(ind)    -nan(ind)     0     0         0.000       0       0  00:00      0.000
  SCANWSM-I            -nan(ind)    -nan(ind)     0     0         0.000       0       0  00:00      0.000
  SDUM1-I              -nan(ind)    -nan(ind)     0     0         0.000       0       0  00:00      0.000
  SDUM2-I              -nan(ind)    -nan(ind)     0     0         0.000       0       0  00:00      0.000
  SDUM3-I              -nan(ind)    -nan(ind)     0     0         0.000       0       0  00:00      0.000
  SDUM4                -nan(ind)    -nan(ind)     0     0         0.000       0       0  00:00      0.000
  SDUM5                -nan(ind)    -nan(ind)     0     0         0.000       0       0  00:00      0.000
  SELCDOM-I            -nan(ind)    -nan(ind)     0     0         0.000       0       0  00:00      0.000
  SLARWIL-I            -nan(ind)    -nan(ind)     0     0         0.000       0       0  00:00      0.000
  SLENWSM-I            -nan(ind)    -nan(ind)     0     0         0.000       0       0  00:00      0.000
  SMAULOG-I            -nan(ind)    -nan(ind)     0     0         0.000       0       0  00:00      0.000
  SMCP85-I             -nan(ind)    -nan(ind)     0     0         0.000       0       0  00:00      0.000
  SMCPMCD-I            -nan(ind)    -nan(ind)     0     0         0.000       0       0  00:00      0.000
  SMCPNOT              -nan(ind)    -nan(ind)     0     0         0.000       0       0  00:00      0.000
  SMYRWIN-I            -nan(ind)    -nan(ind)     0     0         0.000       0       0  00:00      0.000
  SNOTMYR-I            -nan(ind)    -nan(ind)     0     0         0.000       0       0  00:00      0.000
  SNOTWLL-I            -nan(ind)    -nan(ind)     0     0         0.000       0       0  00:00      0.000
  SPORDOM-I            -nan(ind)    -nan(ind)     0     0         0.000       0       0  00:00      0.000
  SPORGRE-I            -nan(ind)    -nan(ind)     0     0         0.000       0       0  00:00      0.000
  SPORSHB-I            -nan(ind)    -nan(ind)     0     0         0.000       0       0  00:00      0.000
  SPORSPR-I            -nan(ind)    -nan(ind)     0     0         0.000       0       0  00:00      0.000
  SPORWLL-I            -nan(ind)    -nan(ind)     0     0         0.000       0       0  00:00      0.000
  SRUB02               -nan(ind)    -nan(ind)     0     0         0.000       0       0  00:00      0.000
  SRUBPAL-I            -nan(ind)    -nan(ind)     0     0         0.000       0       0  00:00      0.000
  SRUBWOL-I            -nan(ind)    -nan(ind)     0     0         0.000       0       0  00:00      0.000
  SSHB33               -nan(ind)    -nan(ind)     0     0         0.000       0       0  00:00      0.000
  SSHB54-I             -nan(ind)    -nan(ind)     0     0         0.000       0       0  00:00      0.000
  SSHBELC-I            -nan(ind)    -nan(ind)     0     0         0.000       0       0  00:00      0.000
  SSHBNOT-I            -nan(ind)    -nan(ind)     0     0         0.000       0       0  00:00      0.000
  SSHBPAL-I            -nan(ind)    -nan(ind)     0     0         0.000       0       0  00:00      0.000
  SSHBSAR-I            -nan(ind)    -nan(ind)     0     0         0.000       0       0  00:00      0.000
  SSHBSTM-I            -nan(ind)    -nan(ind)     0     0         0.000       0       0  00:00      0.000
  SSHBWEL-I            -nan(ind)    -nan(ind)     0     0         0.000       0       0  00:00      0.000
  SSHBWLV-I            -nan(ind)    -nan(ind)     0     0         0.000       0       0  00:00      0.000
  SSHBWSM-I            -nan(ind)    -nan(ind)     0     0         0.000       0       0  00:00      0.000
  SSIMELC-I            -nan(ind)    -nan(ind)     0     0         0.000       0       0  00:00      0.000
  SSIMPOR-I            -nan(ind)    -nan(ind)     0     0         0.000       0       0  00:00      0.000
  SSIMSAR-I            -nan(ind)    -nan(ind)     0     0         0.000       0       0  00:00      0.000
  SSIMSTM-I            -nan(ind)    -nan(ind)     0     0         0.000       0       0  00:00      0.000
  SSIMWEL-I            -nan(ind)    -nan(ind)     0     0         0.000       0       0  00:00      0.000
  SSTMARL-I            -nan(ind)    -nan(ind)     0     0         0.000       0       0  00:00      0.000
  SSTMDOM-I            -nan(ind)    -nan(ind)     0     0         0.000       0       0  00:00      0.000
  SWELDOM-I            -nan(ind)    -nan(ind)     0     0         0.000       0       0  00:00      0.000
  SWELMRY-I            -nan(ind)    -nan(ind)     0     0         0.000       0       0  00:00      0.000
  SWELVIC-I            -nan(ind)    -nan(ind)     0     0         0.000       0       0  00:00      0.000
  SWOLHOM-I            -nan(ind)    -nan(ind)     0     0         0.000       0       0  00:00      0.000
  SWSMARL-I            -nan(ind)    -nan(ind)     0     0         0.000       0       0  00:00      0.000
  SWSMHOM-I            -nan(ind)    -nan(ind)     0     0         0.000       0       0  00:00      0.000
  SXANALE-I            -nan(ind)    -nan(ind)     0     0         0.000       0       0  00:00      0.000
  SXANELG-I            -nan(ind)    -nan(ind)     0     0         0.000       0       0  00:00      0.000
  
  
  ***********************
  Outfall Loading Summary
  ***********************
  
  -----------------------------------------------------------
                         Flow       Avg       Max       Total
                         Freq      Flow      Flow      Volume
  Outfall Node           Pcnt       CMS       CMS    10^6 ltr
  -----------------------------------------------------------
  SAUBOUT             -nan(ind)     0.000     0.000       0.000
  SCANOUT             -nan(ind)     0.000     0.000       0.000
  SRUBOUT             -nan(ind)     0.000     0.000       0.000
  CAUBOUT             -nan(ind)     0.000     0.000       0.000
  CCOROUT             -nan(ind)     0.000     0.000       0.000
  CMRYOUT             -nan(ind)     0.000     0.000       0.000
  -----------------------------------------------------------
  System              -nan(ind)     0.000     0.000       0.000
  
  
  ********************
  Link Flow Summary
  ********************
  
  -----------------------------------------------------------------------------
                                 Maximum  Time of Max   Maximum    Max/    Max/
                                  |Flow|   Occurrence   |Veloc|    Full    Full
  Link                 Type          CMS  days hr:min     m/sec    Flow   Depth
  -----------------------------------------------------------------------------
  CHEN90               CONDUIT     0.000     0  00:00      0.00    0.00    0.00
  CHIGMAU              CONDUIT     0.000     0  00:00      0.00    0.00    0.00
  CPORSHB              CONDUIT     0.000     0  00:00      0.00    0.00    0.00
  CPORDOM              CONDUIT     0.000     0  00:00      0.00    0.00    0.00
  CPORGRE              CONDUIT     0.000     0  00:00      0.00    0.00    0.00
  CPORSPR              CONDUIT     0.000     0  00:00      0.00    0.00    0.00
  CPORWLL              CONDUIT     0.000     0  00:00      0.00    0.00    0.00
  CPORBAN              CONDUIT     0.000     0  00:00      0.00    0.00    0.00
  CPORBUR              CONDUIT     0.000     0  00:00      0.00    0.00    0.00
  CSMTING              CONDUIT     0.000     0  00:00      0.00    0.00    0.00
  CSTMSHB              CONDUIT     0.000     0  00:00      0.00    0.00    0.00
  CELCING              CONDUIT     0.000     0  00:00      0.00    0.00    0.00
  CELCGRF              CONDUIT     0.000     0  00:00      0.00    0.00    0.00
  CWELSHB              CONDUIT     0.000     0  00:00      0.00    0.00    0.00
  CWELDOM              CONDUIT     0.000     0  00:00      0.00    0.00    0.00
  CNOTSHB              CONDUIT     0.000     0  00:00      0.00    0.00    0.00
  CNOTDOM              CONDUIT     0.000     0  00:00      0.00    0.00    0.00
  CPAC72               CONDUIT     0.000     0  00:00      0.00    0.00    0.00
  CPAC75               CONDUIT     0.000     0  00:00      0.00    0.00    0.00
  CLOGYEO              CONDUIT     0.000     0  00:00      0.00    0.00    0.00
  CLOGWNK              CONDUIT     0.000     0  00:00      0.00    0.00    0.00
  CAUBWOL              CONDUIT     0.000     0  00:00      0.00    0.00    0.00
  XCAUBPAL             CONDUIT     0.000     0  00:00      0.00    0.00    0.00
  CAUBWSM              CONDUIT     0.000     0  00:00      0.00    0.00    0.00
  CAUBPOR              CONDUIT     0.000     0  00:00      0.00    0.00    0.00
  CPORLIP              CONDUIT     0.000     0  00:00      0.00    0.00    0.00
  CLIP25               CONDUIT     0.000     0  00:00      0.00    0.00    0.00
  CLIPSMT              CONDUIT     0.000     0  00:00      0.00    0.00    0.00
  CLIP35               CONDUIT     0.000     0  00:00      0.00    0.00    0.00
  CLIPELC              CONDUIT     0.000     0  00:00      0.00    0.00    0.00
  CLIPSAR              CONDUIT     0.000     0  00:00      0.00    0.00    0.00
  CLIPWEL              CONDUIT     0.000     0  00:00      0.00    0.00    0.00
  CLIPYAR              CONDUIT     0.000     0  00:00      0.00    0.00    0.00
  CLIPNOT              CONDUIT     0.000     0  00:00      0.00    0.00    0.00
  CMCPWIN              CONDUIT     0.000     0  00:00      0.00    0.00    0.00
  CMCPBAN              CONDUIT     0.000     0  00:00      0.00    0.00    0.00
  CMCPELG              CONDUIT     0.000     0  00:00      0.00    0.00    0.00
  CMCPROS              CONDUIT     0.000     0  00:00      0.00    0.00    0.00
  CMCPPAC              CONDUIT     0.000     0  00:00      0.00    0.00    0.00
  CMCPLOG              CONDUIT     0.000     0  00:00      0.00    0.00    0.00
  CALEXAN              CONDUIT     0.000     0  00:00      0.00    0.00    0.00
  CLOG80               CONDUIT     0.000     0  00:00      0.00    0.00    0.00
  CLOGELE              CONDUIT     0.000     0  00:00      0.00    0.00    0.00
  CLOGVIN              CONDUIT     0.000     0  00:00      0.00    0.00    0.00
  CLOGQUE              CONDUIT     0.000     0  00:00      0.00    0.00    0.00
  CLOGCEC              CONDUIT     0.000     0  00:00      0.00    0.00    0.00
  CCECROY              CONDUIT     0.000     0  00:00      0.00    0.00    0.00
  CSARBUR              CONDUIT     0.000     0  00:00      0.00    0.00    0.00
  CSARARL              CONDUIT     0.000     0  00:00      0.00    0.00    0.00
  CCOROUT1             CONDUIT     0.000     0  00:00      0.00    0.00    0.00
  CCORMID              CONDUIT     0.000     0  00:00      0.00    0.00    0.00
  CMRYCOR              CONDUIT     0.000     0  00:00      0.00    0.00    0.00
  CMRYCSO              CONDUIT     0.000     0  00:00      0.00    0.00    0.00
  CMRYWSM              CONDUIT     0.000     0  00:00      0.00    0.00    0.00
  CWALPUR              CONDUIT     0.000     0  00:00      0.00    0.00    0.00
  CWSMWAL              CONDUIT     0.000     0  00:00      0.00    0.00    0.00
  CWSMCAN              CONDUIT     0.000     0  00:00      0.00    0.00    0.00
  CWSMETH              CONDUIT     0.000     0  00:00      0.00    0.00    0.00
  CWSMARL              CONDUIT     0.000     0  00:00      0.00    0.00    0.00
  CPREWAL              CONDUIT     0.000     0  00:00      0.00    0.00    0.00
  CCANPRE              CONDUIT     0.000     0  00:00      0.00    0.00    0.00
  CPORCAN              CONDUIT     0.000     0  00:00      0.00    0.00    0.00
  CSIMPOR              CONDUIT     0.000     0  00:00      0.00    0.00    0.00
  CPORHOM              CONDUIT     0.000     0  00:00      0.00    0.00    0.00
  CSIMSTM              CONDUIT     0.000     0  00:00      0.00    0.00    0.00
  CSIMELC              CONDUIT     0.000     0  00:00      0.00    0.00    0.00
  CSIMSAR              CONDUIT     0.000     0  00:00      0.00    0.00    0.00
  CSIMWEL              CONDUIT     0.000     0  00:00      0.00    0.00    0.00
  CAUBSPS              CONDUIT     0.000     0  00:00      0.00    0.00    0.00
  SSHBPAL              CONDUIT     0.000     0  00:00      0.00    0.00    0.00
  SSHBWSM              CONDUIT     0.000     0  00:00      0.00    0.00    0.00
  SPORSHB              CONDUIT     0.000     0  00:00      0.00    0.00    0.00
  SPORDOM              CONDUIT     0.000     0  00:00      0.00    0.00    0.00
  SPORGRE              CONDUIT     0.000     0  00:00      0.00    0.00    0.00
  SPORSPR              CONDUIT     0.000     0  00:00      0.00    0.00    0.00
  SPORWLL              CONDUIT     0.000     0  00:00      0.00    0.00    0.00
  SSHBWLV              CONDUIT     0.000     0  00:00      0.00    0.00    0.00
  SSHBSTM              CONDUIT     0.000     0  00:00      0.00    0.00    0.00
  SSTMDOM              CONDUIT     0.000     0  00:00      0.00    0.00    0.00
  SELCDOM              CONDUIT     0.000     0  00:00      0.00    0.00    0.00
  SSHB33               CONDUIT     0.000     0  00:00      0.00    0.00    0.00
  SSHBELC              CONDUIT     0.000     0  00:00      0.00    0.00    0.00
  SSHBSAR              CONDUIT     0.000     0  00:00      0.00    0.00    0.00
  SSHBWEL              CONDUIT     0.000     0  00:00      0.00    0.00    0.00
  SSHB54               CONDUIT     0.000     0  00:00      0.00    0.00    0.00
  SSHBNOT              CONDUIT     0.000     0  00:00      0.00    0.00    0.00
  SRS-XCON1            CONDUIT     0.000     0  00:00      0.00    0.00    0.00
  SRS-XCON2            CONDUIT     0.000     0  00:00      0.00    0.00    0.00
  SNOTMYR              CONDUIT     0.000     0  00:00      0.00    0.00    0.00
  SMYRWIN              CONDUIT     0.000     0  00:00      0.00    0.00    0.00
  SNOTWLL              CONDUIT     0.000     0  00:00      0.00    0.00    0.00
  SRUB02               CONDUIT     0.000     0  00:00      0.00    0.00    0.00
  SRUBWOL              CONDUIT     0.000     0  00:00      0.00    0.00    0.00
  XSRUBPAL             CONDUIT     0.000     0  00:00      0.00    0.00    0.00
  SLENWSM              CONDUIT     0.000     0  00:00      0.00    0.00    0.00
  SBURPOR              CONDUIT     0.000     0  00:00      0.00    0.00    0.00
  SBUREIN              CONDUIT     0.000     0  00:00      0.00    0.00    0.00
  SBUR28               CONDUIT     0.000     0  00:00      0.00    0.00    0.00
  SBURSMT              CONDUIT     0.000     0  00:00      0.00    0.00    0.00
  SBURELC              CONDUIT     0.000     0  00:00      0.00    0.00    0.00
  SALVSAR              CONDUIT     0.000     0  00:00      0.00    0.00    0.00
  SALVWEL              CONDUIT     0.000     0  00:00      0.00    0.00    0.00
  SALVNOT              CONDUIT     0.000     0  00:00      0.00    0.00    0.00
  SMCPNOT              CONDUIT     0.000     0  00:00      0.00    0.00    0.00
  SMCPMCD              CONDUIT     0.000     0  00:00      0.00    0.00    0.00
  SLARWIL              CONDUIT     0.000     0  00:00      0.00    0.00    0.00
  SXANELG              CONDUIT     0.000     0  00:00      0.00    0.00    0.00
  SXANALE              CONDUIT     0.000     0  00:00      0.00    0.00    0.00
  SALEMAU              CONDUIT     0.000     0  00:00      0.00    0.00    0.00
  SMAULOG              CONDUIT     0.000     0  00:00      0.00    0.00    0.00
  SMCP85               CONDUIT     0.000     0  00:00      0.00    0.00    0.00
  SCANOUT1             CONDUIT     0.000     0  00:00      0.00    0.00    0.00
  SCANWOL              CONDUIT     0.000     0  00:00      0.00    0.00    0.00
  XSCANPAL             CONDUIT     0.000     0  00:00      0.00    0.00    0.00
  SCANWSM              CONDUIT     0.000     0  00:00      0.00    0.00    0.00
  SWSMHOM              CONDUIT     0.000     0  00:00      0.00    0.00    0.00
  SWSMARL              CONDUIT     0.000     0  00:00      0.00    0.00    0.00
  SCANPRE              CONDUIT     0.000     0  00:00      0.00    0.00    0.00
  SSIMPOR              CONDUIT     0.000     0  00:00      0.00    0.00    0.00
  SSIMSTM              CONDUIT     0.000     0  00:00      0.00    0.00    0.00
  SSTMARL              CONDUIT     0.000     0  00:00      0.00    0.00    0.00
  SSIMELC              CONDUIT     0.000     0  00:00      0.00    0.00    0.00
  SSIMSAR              CONDUIT     0.000     0  00:00      0.00    0.00    0.00
  SSIMWEL              CONDUIT     0.000     0  00:00      0.00    0.00    0.00
  SWELVIC              CONDUIT     0.000     0  00:00      0.00    0.00    0.00
  SWELMRY              CONDUIT     0.000     0  00:00      0.00    0.00    0.00
  SWELDOM              CONDUIT     0.000     0  00:00      0.00    0.00    0.00
  SWOLHOM              CONDUIT     0.000     0  00:00      0.00    0.00    0.00
  SDUM1                CONDUIT     0.000     0  00:00      0.00    0.00    0.00
  SDUM2                CONDUIT     0.000     0  00:00      0.00    0.00    0.00
  SDUM3                CONDUIT     0.000     0  00:00      0.00    0.00    0.00
  SMCP85A              CONDUIT     0.000     0  00:00      0.00    0.00    0.00
  SDUM4                CONDUIT     0.000     0  00:00      0.00    0.00    0.00
  SDUM5                CONDUIT     0.000     0  00:00      0.00    0.00    0.00
  PUMP@SCANPAL-SCANOUT1 PUMP        0.000     0  00:00              0.00
  PUMP@SRUBPAL-I-SRUB02 PUMP        0.000     0  00:00              0.00
  PUMP@CAUBPAL-I-CAUBSPS PUMP        0.000     0  00:00              0.00
  PUMP@CCORDIV-CCOROUT1 PUMP        0.000     0  00:00              0.00
  PUMP@CMRYCOR-I-CMRYCSO PUMP        0.000     0  00:00              0.00
  
  
  ***************************
  Flow Classification Summary
  ***************************
  
  -------------------------------------------------------------------------------------
                      Adjusted    ---------- Fraction of Time in Flow Class ---------- 
                       /Actual         Up    Down  Sub   Sup   Up    Down  Norm  Inlet 
  Conduit               Length    Dry  Dry   Dry   Crit  Crit  Crit  Crit  Ltd   Ctrl  
  -------------------------------------------------------------------------------------
  CHEN90                  1.00   -nan(ind)  -nan(ind)  -nan(ind)  -nan(ind)  -nan(ind)  -nan(ind)  -nan(ind)  -nan(ind)  -nan(ind)
  CHIGMAU                 1.00   -nan(ind)  -nan(ind)  -nan(ind)  -nan(ind)  -nan(ind)  -nan(ind)  -nan(ind)  -nan(ind)  -nan(ind)
  CPORSHB                 1.00   -nan(ind)  -nan(ind)  -nan(ind)  -nan(ind)  -nan(ind)  -nan(ind)  -nan(ind)  -nan(ind)  -nan(ind)
  CPORDOM                 1.00   -nan(ind)  -nan(ind)  -nan(ind)  -nan(ind)  -nan(ind)  -nan(ind)  -nan(ind)  -nan(ind)  -nan(ind)
  CPORGRE                 1.00   -nan(ind)  -nan(ind)  -nan(ind)  -nan(ind)  -nan(ind)  -nan(ind)  -nan(ind)  -nan(ind)  -nan(ind)
  CPORSPR                 1.00   -nan(ind)  -nan(ind)  -nan(ind)  -nan(ind)  -nan(ind)  -nan(ind)  -nan(ind)  -nan(ind)  -nan(ind)
  CPORWLL                 1.00   -nan(ind)  -nan(ind)  -nan(ind)  -nan(ind)  -nan(ind)  -nan(ind)  -nan(ind)  -nan(ind)  -nan(ind)
  CPORBAN                 1.00   -nan(ind)  -nan(ind)  -nan(ind)  -nan(ind)  -nan(ind)  -nan(ind)  -nan(ind)  -nan(ind)  -nan(ind)
  CPORBUR                 1.00   -nan(ind)  -nan(ind)  -nan(ind)  -nan(ind)  -nan(ind)  -nan(ind)  -nan(ind)  -nan(ind)  -nan(ind)
  CSMTING                 1.00   -nan(ind)  -nan(ind)  -nan(ind)  -nan(ind)  -nan(ind)  -nan(ind)  -nan(ind)  -nan(ind)  -nan(ind)
  CSTMSHB                 1.00   -nan(ind)  -nan(ind)  -nan(ind)  -nan(ind)  -nan(ind)  -nan(ind)  -nan(ind)  -nan(ind)  -nan(ind)
  CELCING                 1.00   -nan(ind)  -nan(ind)  -nan(ind)  -nan(ind)  -nan(ind)  -nan(ind)  -nan(ind)  -nan(ind)  -nan(ind)
  CELCGRF                 1.00   -nan(ind)  -nan(ind)  -nan(ind)  -nan(ind)  -nan(ind)  -nan(ind)  -nan(ind)  -nan(ind)  -nan(ind)
  CWELSHB                 1.00   -nan(ind)  -nan(ind)  -nan(ind)  -nan(ind)  -nan(ind)  -nan(ind)  -nan(ind)  -nan(ind)  -nan(ind)
  CWELDOM                 1.00   -nan(ind)  -nan(ind)  -nan(ind)  -nan(ind)  -nan(ind)  -nan(ind)  -nan(ind)  -nan(ind)  -nan(ind)
  CNOTSHB                 1.00   -nan(ind)  -nan(ind)  -nan(ind)  -nan(ind)  -nan(ind)  -nan(ind)  -nan(ind)  -nan(ind)  -nan(ind)
  CNOTDOM                 1.00   -nan(ind)  -nan(ind)  -nan(ind)  -nan(ind)  -nan(ind)  -nan(ind)  -nan(ind)  -nan(ind)  -nan(ind)
  CPAC72                  1.00   -nan(ind)  -nan(ind)  -nan(ind)  -nan(ind)  -nan(ind)  -nan(ind)  -nan(ind)  -nan(ind)  -nan(ind)
  CPAC75                  1.00   -nan(ind)  -nan(ind)  -nan(ind)  -nan(ind)  -nan(ind)  -nan(ind)  -nan(ind)  -nan(ind)  -nan(ind)
  CLOGYEO                 1.00   -nan(ind)  -nan(ind)  -nan(ind)  -nan(ind)  -nan(ind)  -nan(ind)  -nan(ind)  -nan(ind)  -nan(ind)
  CLOGWNK                 1.00   -nan(ind)  -nan(ind)  -nan(ind)  -nan(ind)  -nan(ind)  -nan(ind)  -nan(ind)  -nan(ind)  -nan(ind)
  CAUBWOL                 1.00   -nan(ind)  -nan(ind)  -nan(ind)  -nan(ind)  -nan(ind)  -nan(ind)  -nan(ind)  -nan(ind)  -nan(ind)
  XCAUBPAL                1.00   -nan(ind)  -nan(ind)  -nan(ind)  -nan(ind)  -nan(ind)  -nan(ind)  -nan(ind)  -nan(ind)  -nan(ind)
  CAUBWSM                 1.00   -nan(ind)  -nan(ind)  -nan(ind)  -nan(ind)  -nan(ind)  -nan(ind)  -nan(ind)  -nan(ind)  -nan(ind)
  CAUBPOR                 1.00   -nan(ind)  -nan(ind)  -nan(ind)  -nan(ind)  -nan(ind)  -nan(ind)  -nan(ind)  -nan(ind)  -nan(ind)
  CPORLIP                 1.00   -nan(ind)  -nan(ind)  -nan(ind)  -nan(ind)  -nan(ind)  -nan(ind)  -nan(ind)  -nan(ind)  -nan(ind)
  CLIP25                  1.00   -nan(ind)  -nan(ind)  -nan(ind)  -nan(ind)  -nan(ind)  -nan(ind)  -nan(ind)  -nan(ind)  -nan(ind)
  CLIPSMT                 1.00   -nan(ind)  -nan(ind)  -nan(ind)  -nan(ind)  -nan(ind)  -nan(ind)  -nan(ind)  -nan(ind)  -nan(ind)
  CLIP35                  1.00   -nan(ind)  -nan(ind)  -nan(ind)  -nan(ind)  -nan(ind)  -nan(ind)  -nan(ind)  -nan(ind)  -nan(ind)
  CLIPELC                 1.00   -nan(ind)  -nan(ind)  -nan(ind)  -nan(ind)  -nan(ind)  -nan(ind)  -nan(ind)  -nan(ind)  -nan(ind)
  CLIPSAR                 1.00   -nan(ind)  -nan(ind)  -nan(ind)  -nan(ind)  -nan(ind)  -nan(ind)  -nan(ind)  -nan(ind)  -nan(ind)
  CLIPWEL                 1.00   -nan(ind)  -nan(ind)  -nan(ind)  -nan(ind)  -nan(ind)  -nan(ind)  -nan(ind)  -nan(ind)  -nan(ind)
  CLIPYAR                 1.00   -nan(ind)  -nan(ind)  -nan(ind)  -nan(ind)  -nan(ind)  -nan(ind)  -nan(ind)  -nan(ind)  -nan(ind)
  CLIPNOT                 1.00   -nan(ind)  -nan(ind)  -nan(ind)  -nan(ind)  -nan(ind)  -nan(ind)  -nan(ind)  -nan(ind)  -nan(ind)
  CMCPWIN                 1.00   -nan(ind)  -nan(ind)  -nan(ind)  -nan(ind)  -nan(ind)  -nan(ind)  -nan(ind)  -nan(ind)  -nan(ind)
  CMCPBAN                 1.00   -nan(ind)  -nan(ind)  -nan(ind)  -nan(ind)  -nan(ind)  -nan(ind)  -nan(ind)  -nan(ind)  -nan(ind)
  CMCPELG                 1.00   -nan(ind)  -nan(ind)  -nan(ind)  -nan(ind)  -nan(ind)  -nan(ind)  -nan(ind)  -nan(ind)  -nan(ind)
  CMCPROS                 1.00   -nan(ind)  -nan(ind)  -nan(ind)  -nan(ind)  -nan(ind)  -nan(ind)  -nan(ind)  -nan(ind)  -nan(ind)
  CMCPPAC                 1.00   -nan(ind)  -nan(ind)  -nan(ind)  -nan(ind)  -nan(ind)  -nan(ind)  -nan(ind)  -nan(ind)  -nan(ind)
  CMCPLOG                 1.00   -nan(ind)  -nan(ind)  -nan(ind)  -nan(ind)  -nan(ind)  -nan(ind)  -nan(ind)  -nan(ind)  -nan(ind)
  CALEXAN                 1.00   -nan(ind)  -nan(ind)  -nan(ind)  -nan(ind)  -nan(ind)  -nan(ind)  -nan(ind)  -nan(ind)  -nan(ind)
  CLOG80                  1.00   -nan(ind)  -nan(ind)  -nan(ind)  -nan(ind)  -nan(ind)  -nan(ind)  -nan(ind)  -nan(ind)  -nan(ind)
  CLOGELE                 1.00   -nan(ind)  -nan(ind)  -nan(ind)  -nan(ind)  -nan(ind)  -nan(ind)  -nan(ind)  -nan(ind)  -nan(ind)
  CLOGVIN                 1.00   -nan(ind)  -nan(ind)  -nan(ind)  -nan(ind)  -nan(ind)  -nan(ind)  -nan(ind)  -nan(ind)  -nan(ind)
  CLOGQUE                 1.00   -nan(ind)  -nan(ind)  -nan(ind)  -nan(ind)  -nan(ind)  -nan(ind)  -nan(ind)  -nan(ind)  -nan(ind)
  CLOGCEC                 1.00   -nan(ind)  -nan(ind)  -nan(ind)  -nan(ind)  -nan(ind)  -nan(ind)  -nan(ind)  -nan(ind)  -nan(ind)
  CCECROY                 1.00   -nan(ind)  -nan(ind)  -nan(ind)  -nan(ind)  -nan(ind)  -nan(ind)  -nan(ind)  -nan(ind)  -nan(ind)
  CSARBUR                 1.00   -nan(ind)  -nan(ind)  -nan(ind)  -nan(ind)  -nan(ind)  -nan(ind)  -nan(ind)  -nan(ind)  -nan(ind)
  CSARARL                 1.00   -nan(ind)  -nan(ind)  -nan(ind)  -nan(ind)  -nan(ind)  -nan(ind)  -nan(ind)  -nan(ind)  -nan(ind)
  CCOROUT1                1.00   -nan(ind)  -nan(ind)  -nan(ind)  -nan(ind)  -nan(ind)  -nan(ind)  -nan(ind)  -nan(ind)  -nan(ind)
  CCORMID                 1.00   -nan(ind)  -nan(ind)  -nan(ind)  -nan(ind)  -nan(ind)  -nan(ind)  -nan(ind)  -nan(ind)  -nan(ind)
  CMRYCOR                 1.00   -nan(ind)  -nan(ind)  -nan(ind)  -nan(ind)  -nan(ind)  -nan(ind)  -nan(ind)  -nan(ind)  -nan(ind)
  CMRYCSO                 1.00   -nan(ind)  -nan(ind)  -nan(ind)  -nan(ind)  -nan(ind)  -nan(ind)  -nan(ind)  -nan(ind)  -nan(ind)
  CMRYWSM                 1.00   -nan(ind)  -nan(ind)  -nan(ind)  -nan(ind)  -nan(ind)  -nan(ind)  -nan(ind)  -nan(ind)  -nan(ind)
  CWALPUR                 1.00   -nan(ind)  -nan(ind)  -nan(ind)  -nan(ind)  -nan(ind)  -nan(ind)  -nan(ind)  -nan(ind)  -nan(ind)
  CWSMWAL                 1.00   -nan(ind)  -nan(ind)  -nan(ind)  -nan(ind)  -nan(ind)  -nan(ind)  -nan(ind)  -nan(ind)  -nan(ind)
  CWSMCAN                 1.00   -nan(ind)  -nan(ind)  -nan(ind)  -nan(ind)  -nan(ind)  -nan(ind)  -nan(ind)  -nan(ind)  -nan(ind)
  CWSMETH                 1.00   -nan(ind)  -nan(ind)  -nan(ind)  -nan(ind)  -nan(ind)  -nan(ind)  -nan(ind)  -nan(ind)  -nan(ind)
  CWSMARL                 1.00   -nan(ind)  -nan(ind)  -nan(ind)  -nan(ind)  -nan(ind)  -nan(ind)  -nan(ind)  -nan(ind)  -nan(ind)
  CPREWAL                 1.00   -nan(ind)  -nan(ind)  -nan(ind)  -nan(ind)  -nan(ind)  -nan(ind)  -nan(ind)  -nan(ind)  -nan(ind)
  CCANPRE                 1.00   -nan(ind)  -nan(ind)  -nan(ind)  -nan(ind)  -nan(ind)  -nan(ind)  -nan(ind)  -nan(ind)  -nan(ind)
  CPORCAN                 1.00   -nan(ind)  -nan(ind)  -nan(ind)  -nan(ind)  -nan(ind)  -nan(ind)  -nan(ind)  -nan(ind)  -nan(ind)
  CSIMPOR                 1.00   -nan(ind)  -nan(ind)  -nan(ind)  -nan(ind)  -nan(ind)  -nan(ind)  -nan(ind)  -nan(ind)  -nan(ind)
  CPORHOM                 1.00   -nan(ind)  -nan(ind)  -nan(ind)  -nan(ind)  -nan(ind)  -nan(ind)  -nan(ind)  -nan(ind)  -nan(ind)
  CSIMSTM                 1.00   -nan(ind)  -nan(ind)  -nan(ind)  -nan(ind)  -nan(ind)  -nan(ind)  -nan(ind)  -nan(ind)  -nan(ind)
  CSIMELC                 1.00   -nan(ind)  -nan(ind)  -nan(ind)  -nan(ind)  -nan(ind)  -nan(ind)  -nan(ind)  -nan(ind)  -nan(ind)
  CSIMSAR                 1.00   -nan(ind)  -nan(ind)  -nan(ind)  -nan(ind)  -nan(ind)  -nan(ind)  -nan(ind)  -nan(ind)  -nan(ind)
  CSIMWEL                 1.00   -nan(ind)  -nan(ind)  -nan(ind)  -nan(ind)  -nan(ind)  -nan(ind)  -nan(ind)  -nan(ind)  -nan(ind)
  CAUBSPS                 1.00   -nan(ind)  -nan(ind)  -nan(ind)  -nan(ind)  -nan(ind)  -nan(ind)  -nan(ind)  -nan(ind)  -nan(ind)
  SSHBPAL                 1.00   -nan(ind)  -nan(ind)  -nan(ind)  -nan(ind)  -nan(ind)  -nan(ind)  -nan(ind)  -nan(ind)  -nan(ind)
  SSHBWSM                 1.00   -nan(ind)  -nan(ind)  -nan(ind)  -nan(ind)  -nan(ind)  -nan(ind)  -nan(ind)  -nan(ind)  -nan(ind)
  SPORSHB                 1.00   -nan(ind)  -nan(ind)  -nan(ind)  -nan(ind)  -nan(ind)  -nan(ind)  -nan(ind)  -nan(ind)  -nan(ind)
  SPORDOM                 1.00   -nan(ind)  -nan(ind)  -nan(ind)  -nan(ind)  -nan(ind)  -nan(ind)  -nan(ind)  -nan(ind)  -nan(ind)
  SPORGRE                 1.00   -nan(ind)  -nan(ind)  -nan(ind)  -nan(ind)  -nan(ind)  -nan(ind)  -nan(ind)  -nan(ind)  -nan(ind)
  SPORSPR                 1.00   -nan(ind)  -nan(ind)  -nan(ind)  -nan(ind)  -nan(ind)  -nan(ind)  -nan(ind)  -nan(ind)  -nan(ind)
  SPORWLL                 1.00   -nan(ind)  -nan(ind)  -nan(ind)  -nan(ind)  -nan(ind)  -nan(ind)  -nan(ind)  -nan(ind)  -nan(ind)
  SSHBWLV                 1.00   -nan(ind)  -nan(ind)  -nan(ind)  -nan(ind)  -nan(ind)  -nan(ind)  -nan(ind)  -nan(ind)  -nan(ind)
  SSHBSTM                 1.00   -nan(ind)  -nan(ind)  -nan(ind)  -nan(ind)  -nan(ind)  -nan(ind)  -nan(ind)  -nan(ind)  -nan(ind)
  SSTMDOM                 1.00   -nan(ind)  -nan(ind)  -nan(ind)  -nan(ind)  -nan(ind)  -nan(ind)  -nan(ind)  -nan(ind)  -nan(ind)
  SELCDOM                 1.00   -nan(ind)  -nan(ind)  -nan(ind)  -nan(ind)  -nan(ind)  -nan(ind)  -nan(ind)  -nan(ind)  -nan(ind)
  SSHB33                  1.00   -nan(ind)  -nan(ind)  -nan(ind)  -nan(ind)  -nan(ind)  -nan(ind)  -nan(ind)  -nan(ind)  -nan(ind)
  SSHBELC                 1.00   -nan(ind)  -nan(ind)  -nan(ind)  -nan(ind)  -nan(ind)  -nan(ind)  -nan(ind)  -nan(ind)  -nan(ind)
  SSHBSAR                 1.00   -nan(ind)  -nan(ind)  -nan(ind)  -nan(ind)  -nan(ind)  -nan(ind)  -nan(ind)  -nan(ind)  -nan(ind)
  SSHBWEL                 1.00   -nan(ind)  -nan(ind)  -nan(ind)  -nan(ind)  -nan(ind)  -nan(ind)  -nan(ind)  -nan(ind)  -nan(ind)
  SSHB54                  1.00   -nan(ind)  -nan(ind)  -nan(ind)  -nan(ind)  -nan(ind)  -nan(ind)  -nan(ind)  -nan(ind)  -nan(ind)
  SSHBNOT                 1.00   -nan(ind)  -nan(ind)  -nan(ind)  -nan(ind)  -nan(ind)  -nan(ind)  -nan(ind)  -nan(ind)  -nan(ind)
  SRS-XCON1               1.00   -nan(ind)  -nan(ind)  -nan(ind)  -nan(ind)  -nan(ind)  -nan(ind)  -nan(ind)  -nan(ind)  -nan(ind)
  SRS-XCON2               1.00   -nan(ind)  -nan(ind)  -nan(ind)  -nan(ind)  -nan(ind)  -nan(ind)  -nan(ind)  -nan(ind)  -nan(ind)
  SNOTMYR                 1.00   -nan(ind)  -nan(ind)  -nan(ind)  -nan(ind)  -nan(ind)  -nan(ind)  -nan(ind)  -nan(ind)  -nan(ind)
  SMYRWIN                 1.00   -nan(ind)  -nan(ind)  -nan(ind)  -nan(ind)  -nan(ind)  -nan(ind)  -nan(ind)  -nan(ind)  -nan(ind)
  SNOTWLL                 1.00   -nan(ind)  -nan(ind)  -nan(ind)  -nan(ind)  -nan(ind)  -nan(ind)  -nan(ind)  -nan(ind)  -nan(ind)
  SRUB02                  1.00   -nan(ind)  -nan(ind)  -nan(ind)  -nan(ind)  -nan(ind)  -nan(ind)  -nan(ind)  -nan(ind)  -nan(ind)
  SRUBWOL                 1.00   -nan(ind)  -nan(ind)  -nan(ind)  -nan(ind)  -nan(ind)  -nan(ind)  -nan(ind)  -nan(ind)  -nan(ind)
  XSRUBPAL                1.00   -nan(ind)  -nan(ind)  -nan(ind)  -nan(ind)  -nan(ind)  -nan(ind)  -nan(ind)  -nan(ind)  -nan(ind)
  SLENWSM                 1.00   -nan(ind)  -nan(ind)  -nan(ind)  -nan(ind)  -nan(ind)  -nan(ind)  -nan(ind)  -nan(ind)  -nan(ind)
  SBURPOR                 1.00   -nan(ind)  -nan(ind)  -nan(ind)  -nan(ind)  -nan(ind)  -nan(ind)  -nan(ind)  -nan(ind)  -nan(ind)
  SBUREIN                 1.00   -nan(ind)  -nan(ind)  -nan(ind)  -nan(ind)  -nan(ind)  -nan(ind)  -nan(ind)  -nan(ind)  -nan(ind)
  SBUR28                  1.00   -nan(ind)  -nan(ind)  -nan(ind)  -nan(ind)  -nan(ind)  -nan(ind)  -nan(ind)  -nan(ind)  -nan(ind)
  SBURSMT                 1.00   -nan(ind)  -nan(ind)  -nan(ind)  -nan(ind)  -nan(ind)  -nan(ind)  -nan(ind)  -nan(ind)  -nan(ind)
  SBURELC                 1.00   -nan(ind)  -nan(ind)  -nan(ind)  -nan(ind)  -nan(ind)  -nan(ind)  -nan(ind)  -nan(ind)  -nan(ind)
  SALVSAR                 1.00   -nan(ind)  -nan(ind)  -nan(ind)  -nan(ind)  -nan(ind)  -nan(ind)  -nan(ind)  -nan(ind)  -nan(ind)
  SALVWEL                 1.00   -nan(ind)  -nan(ind)  -nan(ind)  -nan(ind)  -nan(ind)  -nan(ind)  -nan(ind)  -nan(ind)  -nan(ind)
  SALVNOT                 1.00   -nan(ind)  -nan(ind)  -nan(ind)  -nan(ind)  -nan(ind)  -nan(ind)  -nan(ind)  -nan(ind)  -nan(ind)
  SMCPNOT                 1.00   -nan(ind)  -nan(ind)  -nan(ind)  -nan(ind)  -nan(ind)  -nan(ind)  -nan(ind)  -nan(ind)  -nan(ind)
  SMCPMCD                 1.00   -nan(ind)  -nan(ind)  -nan(ind)  -nan(ind)  -nan(ind)  -nan(ind)  -nan(ind)  -nan(ind)  -nan(ind)
  SLARWIL                 1.00   -nan(ind)  -nan(ind)  -nan(ind)  -nan(ind)  -nan(ind)  -nan(ind)  -nan(ind)  -nan(ind)  -nan(ind)
  SXANELG                 1.00   -nan(ind)  -nan(ind)  -nan(ind)  -nan(ind)  -nan(ind)  -nan(ind)  -nan(ind)  -nan(ind)  -nan(ind)
  SXANALE                 1.00   -nan(ind)  -nan(ind)  -nan(ind)  -nan(ind)  -nan(ind)  -nan(ind)  -nan(ind)  -nan(ind)  -nan(ind)
  SALEMAU                 1.00   -nan(ind)  -nan(ind)  -nan(ind)  -nan(ind)  -nan(ind)  -nan(ind)  -nan(ind)  -nan(ind)  -nan(ind)
  SMAULOG                 1.00   -nan(ind)  -nan(ind)  -nan(ind)  -nan(ind)  -nan(ind)  -nan(ind)  -nan(ind)  -nan(ind)  -nan(ind)
  SMCP85                  1.00   -nan(ind)  -nan(ind)  -nan(ind)  -nan(ind)  -nan(ind)  -nan(ind)  -nan(ind)  -nan(ind)  -nan(ind)
  SCANOUT1                1.00   -nan(ind)  -nan(ind)  -nan(ind)  -nan(ind)  -nan(ind)  -nan(ind)  -nan(ind)  -nan(ind)  -nan(ind)
  SCANWOL                 1.00   -nan(ind)  -nan(ind)  -nan(ind)  -nan(ind)  -nan(ind)  -nan(ind)  -nan(ind)  -nan(ind)  -nan(ind)
  XSCANPAL                1.00   -nan(ind)  -nan(ind)  -nan(ind)  -nan(ind)  -nan(ind)  -nan(ind)  -nan(ind)  -nan(ind)  -nan(ind)
  SCANWSM                 1.00   -nan(ind)  -nan(ind)  -nan(ind)  -nan(ind)  -nan(ind)  -nan(ind)  -nan(ind)  -nan(ind)  -nan(ind)
  SWSMHOM                 1.00   -nan(ind)  -nan(ind)  -nan(ind)  -nan(ind)  -nan(ind)  -nan(ind)  -nan(ind)  -nan(ind)  -nan(ind)
  SWSMARL                 1.00   -nan(ind)  -nan(ind)  -nan(ind)  -nan(ind)  -nan(ind)  -nan(ind)  -nan(ind)  -nan(ind)  -nan(ind)
  SCANPRE                 1.00   -nan(ind)  -nan(ind)  -nan(ind)  -nan(ind)  -nan(ind)  -nan(ind)  -nan(ind)  -nan(ind)  -nan(ind)
  SSIMPOR                 1.00   -nan(ind)  -nan(ind)  -nan(ind)  -nan(ind)  -nan(ind)  -nan(ind)  -nan(ind)  -nan(ind)  -nan(ind)
  SSIMSTM                 1.00   -nan(ind)  -nan(ind)  -nan(ind)  -nan(ind)  -nan(ind)  -nan(ind)  -nan(ind)  -nan(ind)  -nan(ind)
  SSTMARL                 1.00   -nan(ind)  -nan(ind)  -nan(ind)  -nan(ind)  -nan(ind)  -nan(ind)  -nan(ind)  -nan(ind)  -nan(ind)
  SSIMELC                 1.00   -nan(ind)  -nan(ind)  -nan(ind)  -nan(ind)  -nan(ind)  -nan(ind)  -nan(ind)  -nan(ind)  -nan(ind)
  SSIMSAR                 1.00   -nan(ind)  -nan(ind)  -nan(ind)  -nan(ind)  -nan(ind)  -nan(ind)  -nan(ind)  -nan(ind)  -nan(ind)
  SSIMWEL                 1.00   -nan(ind)  -nan(ind)  -nan(ind)  -nan(ind)  -nan(ind)  -nan(ind)  -nan(ind)  -nan(ind)  -nan(ind)
  SWELVIC                 1.00   -nan(ind)  -nan(ind)  -nan(ind)  -nan(ind)  -nan(ind)  -nan(ind)  -nan(ind)  -nan(ind)  -nan(ind)
  SWELMRY                 1.00   -nan(ind)  -nan(ind)  -nan(ind)  -nan(ind)  -nan(ind)  -nan(ind)  -nan(ind)  -nan(ind)  -nan(ind)
  SWELDOM                 1.00   -nan(ind)  -nan(ind)  -nan(ind)  -nan(ind)  -nan(ind)  -nan(ind)  -nan(ind)  -nan(ind)  -nan(ind)
  SWOLHOM                 1.00   -nan(ind)  -nan(ind)  -nan(ind)  -nan(ind)  -nan(ind)  -nan(ind)  -nan(ind)  -nan(ind)  -nan(ind)
  SDUM1                   1.00   -nan(ind)  -nan(ind)  -nan(ind)  -nan(ind)  -nan(ind)  -nan(ind)  -nan(ind)  -nan(ind)  -nan(ind)
  SDUM2                   1.00   -nan(ind)  -nan(ind)  -nan(ind)  -nan(ind)  -nan(ind)  -nan(ind)  -nan(ind)  -nan(ind)  -nan(ind)
  SDUM3                   1.00   -nan(ind)  -nan(ind)  -nan(ind)  -nan(ind)  -nan(ind)  -nan(ind)  -nan(ind)  -nan(ind)  -nan(ind)
  SMCP85A                 1.00   -nan(ind)  -nan(ind)  -nan(ind)  -nan(ind)  -nan(ind)  -nan(ind)  -nan(ind)  -nan(ind)  -nan(ind)
  SDUM4                   1.00   -nan(ind)  -nan(ind)  -nan(ind)  -nan(ind)  -nan(ind)  -nan(ind)  -nan(ind)  -nan(ind)  -nan(ind)
  SDUM5                   1.00   -nan(ind)  -nan(ind)  -nan(ind)  -nan(ind)  -nan(ind)  -nan(ind)  -nan(ind)  -nan(ind)  -nan(ind)
  
  
  *************************
  Conduit Surcharge Summary
  *************************
  
  No conduits were surcharged.
  
  
  ***************
  Pumping Summary
  ***************
  
  ---------------------------------------------------------------------------------------------------------
                                                  Min       Avg       Max     Total     Power    % Time Off
                        Percent   Number of      Flow      Flow      Flow    Volume     Usage    Pump Curve
  Pump                 Utilized   Start-Ups       CMS       CMS       CMS  10^6 ltr     Kw-hr    Low   High
  ---------------------------------------------------------------------------------------------------------
  PUMP@SCANPAL-SCANOUT1 -nan(ind)           0      0.00      0.00      0.00     0.000      0.00    0.0    0.0
  PUMP@SRUBPAL-I-SRUB02 -nan(ind)           0      0.00      0.00      0.00     0.000      0.00    0.0    0.0
  PUMP@CAUBPAL-I-CAUBSPS -nan(ind)           0      0.00      0.00      0.00     0.000      0.00    0.0    0.0
  PUMP@CCORDIV-CCOROUT1 -nan(ind)           0      0.00      0.00      0.00     0.000      0.00    0.0    0.0
  PUMP@CMRYCOR-I-CMRYCSO -nan(ind)           0      0.00      0.00      0.00     0.000      0.00    0.0    0.0
  

  Analysis begun on:  Sat Nov 30 08:12:09 2019
  Analysis ended on:  Sat Nov 30 08:12:09 2019
  Total elapsed time: < 1 sec