
  EPA STORM WATER MANAGEMENT MODEL - VERSION 5.1 (Build 5.1.013)
  --------------------------------------------------------------

     Aubrey Cornish Coarse Runoff Model 
     Catchments duplicated as to connectivity to CS or SRS - ratio lines proportion areas 
     Aubrey Cornish Coarse Extran Model - All outfalls as pumps with single dummy pipes 
  
  
  *********************************************************
  NOTE: The summary statistics displayed in this report are
  based on results found at every computational time step,  
  not just on results from each reporting time step.
  *********************************************************
  
  ****************
  Analysis Options
  ****************
  Flow Units ............... CMS
  Process Models:
    Rainfall/Runoff ........ YES
    RDII ................... NO
    Snowmelt ............... NO
    Groundwater ............ NO
    Flow Routing ........... YES
    Ponding Allowed ........ NO
    Water Quality .......... NO
  Infiltration Method ...... HORTON
  Flow Routing Method ...... DYNWAVE
  Surcharge Method ......... EXTRAN
  Starting Date ............ 01/01/1999 01:00:00
  Ending Date .............. 01/01/1999 05:00:00
  Antecedent Dry Days ...... 0.0
  Report Time Step ......... 00:00:30
  Wet Time Step ............ 00:01:00
  Dry Time Step ............ 00:10:00
  Routing Time Step ........ 30.00 sec
  Variable Time Step ....... YES
  Maximum Trials ........... 8
  Number of Threads ........ 1
  Head Tolerance ........... 0.001524 m
  
  
  **************************        Volume         Depth
  Runoff Quantity Continuity     hectare-m            mm
  **************************     ---------       -------
  Total Precipitation ......        25.557        42.200
  Evaporation Loss .........         0.000         0.000
  Infiltration Loss ........        11.896        19.642
  Surface Runoff ...........        13.145        21.705
  Final Storage ............         0.522         0.863
  Continuity Error (%) .....        -0.025
  
  
  **************************        Volume        Volume
  Flow Routing Continuity        hectare-m      10^6 ltr
  **************************     ---------     ---------
  Dry Weather Inflow .......         0.000         0.000
  Wet Weather Inflow .......        13.107       131.068
  Groundwater Inflow .......         0.000         0.000
  RDII Inflow ..............         0.000         0.000
  External Inflow ..........         0.000         0.000
  External Outflow .........        12.529       125.294
  Flooding Loss ............         0.032         0.320
  Evaporation Loss .........         0.000         0.000
  Exfiltration Loss ........         0.000         0.000
  Initial Stored Volume ....         2.302        23.020
  Final Stored Volume ......         2.901        29.012
  Continuity Error (%) .....        -0.349
  
  
  *************************
  Highest Continuity Errors
  *************************
  Node CWELSHB-I (2.66%)
  Node CALEXAN-I (2.33%)
  Node CPAC72-I (2.22%)
  Node CLIPSAR-I (1.97%)
  Node SSHBSAR-I (1.75%)
  
  
  ***************************
  Time-Step Critical Elements
  ***************************
  Link CPORSHB (25.30%)
  Link SNOTWLL (7.12%)
  Link CLIP35 (6.47%)
  Link CLIPELC (5.90%)
  Link CELCING (5.25%)
  
  
  ********************************
  Highest Flow Instability Indexes
  ********************************
  Link PUMP@SCANPAL-SCANOUT1 (51)
  Link PUMP@SRUBPAL-I-SRUB02 (44)
  Link XSRUBPAL (19)
  Link XSCANPAL (16)
  Link SRUB02 (13)
  
  
  *************************
  Routing Time Step Summary
  *************************
  Minimum Time Step           :     0.98 sec
  Average Time Step           :    13.50 sec
  Maximum Time Step           :    30.00 sec
  Percent in Steady State     :    -0.00
  Average Iterations per Step :     3.20
  Percent Not Converging      :    10.68
  
  
  ***************************
  Subcatchment Runoff Summary
  ***************************
  
  ------------------------------------------------------------------------------------------------------------------------------
                            Total      Total      Total      Total     Imperv       Perv      Total       Total     Peak  Runoff
                           Precip      Runon       Evap      Infil     Runoff     Runoff     Runoff      Runoff   Runoff   Coeff
  Subcatchment                 mm         mm         mm         mm         mm         mm         mm    10^6 ltr      CMS
  ------------------------------------------------------------------------------------------------------------------------------
  CMCPWIN                   42.20       0.00       0.00      10.13      30.83       0.00      30.83        1.06     0.56   0.731
  CMCPBAN                   42.20       0.00       0.00       7.17      33.65       0.00      33.65        0.58     0.31   0.797
  CMCPELG                   42.20       0.00       0.00      21.94      19.50       0.00      19.50        0.27     0.14   0.462
  CMCPPAC                   42.20       0.00       0.00       7.17      33.65       0.00      33.65        0.77     0.40   0.797
  CPAC72                    42.20       0.00       0.00      21.10      20.31       0.00      20.31        0.48     0.25   0.481
  CPAC75                    42.20       0.00       0.00      16.88      24.36       0.00      24.36        0.57     0.30   0.577
  CALEXAN                   42.20       0.00       0.00       8.44      32.44       0.00      32.44        0.06     0.03   0.769
  CLOG80                    42.20       0.00       0.00       4.22      36.47       0.00      36.47        0.43     0.23   0.864
  CHEN90                    42.20       0.00       0.00      24.48      17.07       0.00      17.07        0.48     0.25   0.405
  CHIGMAU                   42.20       0.00       0.00      10.97      30.02       0.00      30.02        0.44     0.23   0.711
  CHEN90-R                  42.20       0.00       0.00      37.98       4.07       0.00       4.07        0.05     0.02   0.097
  CHIGMAU-R                 42.20       0.00       0.00      37.98       4.07       0.00       4.07        0.04     0.02   0.097
  CMCPLOG                   42.20       0.00       0.00      25.32      16.26       0.00      16.26        0.30     0.16   0.385
  CLOGYEO                   42.20       0.00       0.00      33.76       8.14       0.00       8.14        0.07     0.04   0.193
  CLOGYEO-R                 42.20       0.00       0.00      37.98       4.07       0.00       4.07        0.00     0.00   0.097
  CLOGWNK                   42.20       0.00       0.00      27.43      14.23       0.00      14.23        0.34     0.18   0.337
  CLOGCEC-R                 42.20       0.00       0.00      37.98       4.07       0.00       4.07        0.22     0.12   0.097
  CLOGQUE-R                 42.20       0.00       0.00      34.60       7.33       0.00       7.33        0.06     0.03   0.174
  CLOGVIN-R                 42.20       0.00       0.00      37.98       4.07       0.00       4.07        0.10     0.05   0.097
  CLOGWNK-R                 42.20       0.00       0.00      37.98       4.07       0.00       4.07        0.02     0.01   0.097
  CLOGELE                   42.20       0.00       0.00      25.32      16.26       0.00      16.26        0.24     0.12   0.385
  CLOGVIN                   42.20       0.00       0.00      14.77      26.38       0.00      26.38        0.56     0.30   0.625
  CLOGQUE                   42.20       0.00       0.00      16.88      24.36       0.00      24.36        0.08     0.04   0.577
  CLOGCEC                   42.20       0.00       0.00      18.99      22.34       0.00      22.34        0.42     0.22   0.529
  CCECROY                   42.20       0.00       0.00      18.99      22.34       0.00      22.34        0.08     0.04   0.529
  SMCPWIN1                  42.20       0.00       0.00       8.44      32.44       0.00      32.44        0.45     0.23   0.769
  SMCPWIN2                  42.20       0.00       0.00      11.82      29.21       0.00      29.21        2.00     1.05   0.692
  SMCPBAN                   42.20       0.00       0.00       7.17      33.65       0.00      33.65        2.33     1.22   0.797
  SMCPELG                   42.20       0.00       0.00      21.94      19.50       0.00      19.50        1.08     0.57   0.462
  SMCPPAC                   42.20       0.00       0.00       7.17      33.65       0.00      33.65        3.06     1.61   0.797
  SPAC72                    42.20       0.00       0.00      21.10      20.31       0.00      20.31        1.92     1.01   0.481
  SPAC75                    42.20       0.00       0.00      16.88      24.36       0.00      24.36        2.28     1.20   0.577
  SXANALE                   42.20       0.00       0.00       8.44      32.44       0.00      32.44        0.22     0.12   0.769
  SLOG80                    42.20       0.00       0.00       4.22      36.47       0.00      36.47        1.72     0.91   0.864
  SHEN90                    42.20       0.00       0.00      24.48      17.07       0.00      17.07        1.92     1.01   0.405
  SHIGMAU                   42.20       0.00       0.00      10.97      30.02       0.00      30.02        1.75     0.92   0.711
  SHEN90-R                  42.20       0.00       0.00      37.98       4.07       0.00       4.07        0.19     0.10   0.097
  SHIGMAU-R                 42.20       0.00       0.00      37.98       4.07       0.00       4.07        0.15     0.08   0.097
  SMCPLOG                   42.20       0.00       0.00      25.32      16.26       0.00      16.26        1.19     0.63   0.385
  SLOGYEO                   42.20       0.00       0.00      33.76       8.14       0.00       8.14        0.30     0.16   0.193
  SLOGYEO-R                 42.20       0.00       0.00      37.98       4.07       0.00       4.07        0.02     0.01   0.097
  SLOGWNK                   42.20       0.00       0.00      27.43      14.23       0.00      14.23        1.36     0.71   0.337
  SLOGCEC-R                 42.20       0.00       0.00      37.98       4.07       0.00       4.07        0.89     0.47   0.097
  SLOGQUE-R                 42.20       0.00       0.00      34.60       7.33       0.00       7.33        0.24     0.13   0.174
  SLOGVIN-R                 42.20       0.00       0.00      37.98       4.07       0.00       4.07        0.38     0.20   0.097
  SLOGWNK-R                 42.20       0.00       0.00      37.98       4.07       0.00       4.07        0.08     0.04   0.097
  SLOGELE                   42.20       0.00       0.00      25.32      16.26       0.00      16.26        0.94     0.50   0.385
  SLOGVIN                   42.20       0.00       0.00      14.77      26.38       0.00      26.38        2.25     1.19   0.625
  SLOGQUE                   42.20       0.00       0.00      16.88      24.36       0.00      24.36        0.32     0.17   0.577
  SLOGCEC                   42.20       0.00       0.00      18.99      22.34       0.00      22.34        1.67     0.88   0.529
  SCECROY                   42.20       0.00       0.00      18.99      22.34       0.00      22.34        0.30     0.16   0.529
  CLIPSAR                   42.20       0.00       0.00      17.72      23.55       0.00      23.55        0.89     0.47   0.558
  CSARBUR                   42.20       0.00       0.00      18.99      22.34       0.00      22.34        0.48     0.25   0.529
  CSARARL                   42.20       0.00       0.00      17.72      23.55       0.00      23.55        1.14     0.60   0.558
  CLIPWEL                   42.20       0.00       0.00      16.88      24.36       0.00      24.36        1.28     0.67   0.577
  CWELSHB                   42.20       0.00       0.00      18.99      22.34       0.00      22.34        0.37     0.20   0.529
  CWELDOM                   42.20       0.00       0.00      19.83      21.53       0.00      21.53        1.10     0.58   0.510
  CLIPNOT                   42.20       0.00       0.00      11.39      29.62       0.00      29.62        1.03     0.54   0.702
  CNOTDOM                   42.20       0.00       0.00      18.99      22.34       0.00      22.34        2.16     1.14   0.529
  CNOTSHB                   42.20       0.00       0.00      17.30      23.96       0.00      23.96        0.98     0.51   0.568
  SLIPSAR                   42.20       0.00       0.00      17.72      23.55       0.00      23.55        0.72     0.38   0.558
  SSARBUR                   42.20       0.00       0.00      18.99      22.34       0.00      22.34        0.88     0.47   0.529
  SSARARL1                  42.20       0.00       0.00      17.08      24.17       0.00      24.17        0.72     0.38   0.573
  SSARARL2                  42.20       0.00       0.00      17.08      24.17       0.00      24.17        0.72     0.38   0.573
  SSARARL3                  42.20       0.00       0.00      18.99      22.34       0.00      22.34        0.67     0.35   0.529
  SLIPWEL1                  42.20       0.00       0.00      16.88      24.36       0.00      24.36        1.66     0.88   0.577
  SLIPWEL2                  42.20       0.00       0.00      16.88      24.36       0.00      24.36        0.71     0.38   0.577
  SWELSHB                   42.20       0.00       0.00      18.99      22.34       0.00      22.34        0.69     0.36   0.529
  SWELDOM                   42.20       0.00       0.00      19.83      21.53       0.00      21.53        2.04     1.07   0.510
  SLIPNOT1                  42.20       0.00       0.00      18.57      22.74       0.00      22.74        0.74     0.39   0.539
  SLIPNOT2                  42.20       0.00       0.00       4.22      36.47       0.00      36.47        1.18     0.62   0.864
  SNOTDOM1                  42.20       0.00       0.00      18.99      22.34       0.00      22.34        1.34     0.70   0.529
  SNOTDOM2                  42.20       0.00       0.00      18.99      22.34       0.00      22.34        1.34     0.70   0.529
  SNOTDOM3                  42.20       0.00       0.00      18.99      22.34       0.00      22.34        1.34     0.70   0.529
  SNOTSHB                   42.20       0.00       0.00      17.30      23.96       0.00      23.96        1.82     0.96   0.568
  CAUBPAL                   42.20       0.00       0.00      18.99      22.34       0.00      22.34        0.22     0.12   0.529
  CAUBWOL                   42.20       0.00       0.00      18.99      22.34       0.00      22.34        0.80     0.42   0.529
  CAUBWSM                   42.20       0.00       0.00      18.99      22.34       0.00      22.34        0.29     0.15   0.529
  CELCGRF                   42.20       0.00       0.00      18.99      22.34       0.00      22.34        1.49     0.78   0.529
  CELCING                   42.20       0.00       0.00      18.99      22.34       0.00      22.34        0.56     0.30   0.529
  CLIPELC                   42.20       0.00       0.00      18.99      22.34       0.00      22.34        0.23     0.12   0.529
  CLIPSMT                   42.20       0.00       0.00      18.57      22.74       0.00      22.74        0.85     0.45   0.539
  CPORBAN                   42.20       0.00       0.00      18.99      22.34       0.00      22.34        1.08     0.57   0.529
  CPORBUR                   42.20       0.00       0.00      13.08      28.00       0.00      28.00        2.45     1.29   0.664
  CPORDOM                   42.20       0.00       0.00      14.77      26.38       0.00      26.38        1.17     0.62   0.625
  CPORGRE                   42.20       0.00       0.00      18.99      22.34       0.00      22.34        1.51     0.80   0.529
  CPORLIP                   42.20       0.00       0.00      17.72      23.55       0.00      23.55        0.56     0.29   0.558
  CPORSHB                   42.20       0.00       0.00      17.30      23.96       0.00      23.96        0.98     0.52   0.568
  CPORSPR                   42.20       0.00       0.00      16.88      24.36       0.00      24.36        0.97     0.51   0.577
  CPORWLL                   42.20       0.00       0.00       8.44      32.44       0.00      32.44        2.13     1.12   0.769
  CSMTING                   42.20       0.00       0.00      18.99      22.34       0.00      22.34        0.68     0.36   0.529
  CSTMSHB                   42.20       0.00       0.00      18.99      22.34       0.00      22.34        1.17     0.62   0.529
  SAUBPAL                   42.20       0.00       0.00      18.99      22.34       0.00      22.34        0.21     0.11   0.529
  SAUBWOL                   42.20       0.00       0.00      18.99      22.34       0.00      22.34        1.19     0.63   0.529
  SELCGRF1                  42.20       0.00       0.00      18.99      22.34       0.00      22.34        1.78     0.94   0.529
  SELCGRF2                  42.20       0.00       0.00      18.99      22.34       0.00      22.34        0.45     0.23   0.529
  SELCING                   42.20       0.00       0.00      18.99      22.34       0.00      22.34        0.84     0.44   0.529
  SLIPELC                   42.20       0.00       0.00      18.99      22.34       0.00      22.34        0.35     0.19   0.529
  SLIPSMT1                  42.20       0.00       0.00      18.99      22.34       0.00      22.34        0.62     0.33   0.529
  SLIPSMT2                  42.20       0.00       0.00      18.15      23.15       0.00      23.15        0.65     0.34   0.549
  SPORBAN1                  42.20       0.00       0.00      18.99      22.34       0.00      22.34        1.14     0.60   0.529
  SPORBAN2                  42.20       0.00       0.00      18.99      22.34       0.00      22.34        0.49     0.26   0.529
  SPORBUR1                  42.20       0.00       0.00      18.99      22.34       0.00      22.34        0.73     0.39   0.529
  SPORBUR2                  42.20       0.00       0.00       7.17      33.65       0.00      33.65        1.10     0.58   0.797
  SPORBUR3                  42.20       0.00       0.00      13.08      28.00       0.00      28.00        0.92     0.48   0.664
  SPORBUR4                  42.20       0.00       0.00      13.08      28.00       0.00      28.00        0.92     0.48   0.664
  SPORDOM1                  42.20       0.00       0.00      18.99      22.34       0.00      22.34        0.37     0.20   0.529
  SPORDOM2                  42.20       0.00       0.00      18.99      22.34       0.00      22.34        0.37     0.20   0.529
  SPORDOM3                  42.20       0.00       0.00      12.66      28.40       0.00      28.40        0.47     0.25   0.673
  SPORDOM4                  42.20       0.00       0.00       8.44      32.44       0.00      32.44        0.54     0.28   0.769
  SPORGRE1                  42.20       0.00       0.00      18.99      22.34       0.00      22.34        0.57     0.30   0.529
  SPORGRE2                  42.20       0.00       0.00      18.99      22.34       0.00      22.34        0.57     0.30   0.529
  SPORGRE3                  42.20       0.00       0.00      18.99      22.34       0.00      22.34        0.57     0.30   0.529
  SPORGRE4                  42.20       0.00       0.00      18.99      22.34       0.00      22.34        0.57     0.30   0.529
  SPORLIP1                  42.20       0.00       0.00      17.72      23.55       0.00      23.55        0.42     0.22   0.558
  SPORLIP2                  42.20       0.00       0.00      17.72      23.55       0.00      23.55        0.42     0.22   0.558
  SPORSHB1                  42.20       0.00       0.00      18.99      22.34       0.00      22.34        0.46     0.24   0.529
  SPORSHB2                  42.20       0.00       0.00      13.93      27.19       0.00      27.19        0.56     0.29   0.644
  SPORSHB3                  42.20       0.00       0.00      18.99      22.34       0.00      22.34        0.46     0.24   0.529
  SPORSPR1                  42.20       0.00       0.00      18.99      22.34       0.00      22.34        0.45     0.24   0.529
  SPORSPR2                  42.20       0.00       0.00      12.65      28.41       0.00      28.41        0.57     0.30   0.673
  SPORSPR3                  42.20       0.00       0.00      18.99      22.34       0.00      22.34        0.45     0.24   0.529
  SPORWLL1                  42.20       0.00       0.00      21.10      20.31       0.00      20.31        0.67     0.35   0.481
  SPORWLL2                  42.20       0.00       0.00       2.11      38.49       0.00      38.49        1.26     0.66   0.912
  SPORWLL3                  42.20       0.00       0.00       2.11      38.49       0.00      38.49        1.26     0.66   0.912
  SSMTING1                  42.20       0.00       0.00      18.99      22.34       0.00      22.34        0.71     0.38   0.529
  SSMTING2                  42.20       0.00       0.00      18.99      22.34       0.00      22.34        0.31     0.16   0.529
  SSTMSHB1                  42.20       0.00       0.00      18.99      22.34       0.00      22.34        0.88     0.46   0.529
  SSTMSHB2                  42.20       0.00       0.00      12.24      28.81       0.00      28.81        0.57     0.30   0.683
  SSTMSHB3                  42.20       0.00       0.00      25.74      15.86       0.00      15.86        0.31     0.16   0.376
  CPORCAN                   42.20       0.00       0.00      13.08      28.00       0.00      28.00        0.24     0.13   0.664
  CPORHOM                   42.20       0.00       0.00      16.04      25.17       0.00      25.17        0.49     0.26   0.596
  CSIMSTM                   42.20       0.00       0.00      18.99      22.34       0.00      22.34        0.57     0.30   0.529
  CSIMELC                   42.20       0.00       0.00      18.99      22.34       0.00      22.34        0.66     0.35   0.529
  CSIMSAR                   42.20       0.00       0.00      17.30      23.96       0.00      23.96        0.32     0.17   0.568
  CSIMWEL                   42.20       0.00       0.00      14.35      26.79       0.00      26.79        0.38     0.20   0.635
  SPORCAN1                  42.20       0.00       0.00       7.17      33.65       0.00      33.65        0.19     0.10   0.797
  SPORCAN2                  42.20       0.00       0.00      18.99      22.34       0.00      22.34        0.64     0.34   0.529
  SPORHOM1                  42.20       0.00       0.00      16.04      25.17       0.00      25.17        0.99     0.52   0.596
  SPORHOM2                  42.20       0.00       0.00      16.04      25.17       0.00      25.17        0.99     0.52   0.596
  SSIMSTM1                  42.20       0.00       0.00      18.99      22.34       0.00      22.34        1.13     0.60   0.529
  SSIMSTM2                  42.20       0.00       0.00      18.99      22.34       0.00      22.34        1.13     0.60   0.529
  SSIMELC                   42.20       0.00       0.00      18.99      22.34       0.00      22.34        2.65     1.40   0.529
  SSIMSAR                   42.20       0.00       0.00      17.30      23.96       0.00      23.96        1.27     0.67   0.568
  SSIMWEL1                  42.20       0.00       0.00      14.35      26.84       0.00      26.84        0.75     0.40   0.636
  SSIMWEL2                  42.20       0.00       0.00      14.35      26.84       0.00      26.84        0.75     0.40   0.636
  CCORMID                   42.20       0.00       0.00      25.32      16.26       0.00      16.26        1.09     0.58   0.385
  CMRYCOR                   42.20       0.00       0.00      17.30      23.96       0.00      23.96        0.49     0.26   0.568
  CMRYWSM                   42.20       0.00       0.00      16.88      24.36       0.00      24.36        0.23     0.12   0.577
  CWALPUR                   42.20       0.00       0.00      18.99      22.34       0.00      22.34        0.39     0.20   0.529
  CWSMWAL                   42.20       0.00       0.00      18.99      22.34       0.00      22.34        1.04     0.55   0.529
  CWSMARL                   42.20       0.00       0.00      18.99      22.34       0.00      22.34        1.31     0.69   0.529
  CWSMCAN                   42.20       0.00       0.00      18.99      22.34       0.00      22.34        0.86     0.45   0.529
  CWSMETH                   42.20       0.00       0.00      18.99      22.34       0.00      22.34        0.96     0.51   0.529
  CCANPRE                   42.20       0.00       0.00      28.27      13.42       0.00      13.42        0.45     0.24   0.318
  SCORMID                   42.20       0.00       0.00      25.32      16.26       0.00      16.26        0.68     0.36   0.385
  SMRYCOR                   42.20       0.00       0.00      17.30      23.96       0.00      23.96        0.49     0.26   0.568
  SMRYWSM                   42.20       0.00       0.00      16.88      24.36       0.00      24.36        0.23     0.12   0.577
  SWALPUR                   42.20       0.00       0.00      18.99      22.34       0.00      22.34        0.39     0.20   0.529
  SWSMWAL1                  42.20       0.00       0.00      18.99      22.34       0.00      22.34        0.52     0.27   0.529
  SWSMWAL2                  42.20       0.00       0.00      18.99      22.34       0.00      22.34        0.52     0.27   0.529
  SWSMARL1                  42.20       0.00       0.00      18.99      22.34       0.00      22.34        0.66     0.35   0.529
  SWSMARL2                  42.20       0.00       0.00      18.99      22.34       0.00      22.34        0.66     0.35   0.529
  SWSMCAN1                  42.20       0.00       0.00      18.99      22.34       0.00      22.34        0.43     0.23   0.529
  SWSMCAN2                  42.20       0.00       0.00      18.99      22.34       0.00      22.34        0.43     0.23   0.529
  SWSMETH1                  42.20       0.00       0.00      18.99      22.34       0.00      22.34        0.48     0.25   0.529
  SWSMETH2                  42.20       0.00       0.00      18.99      22.34       0.00      22.34        0.48     0.25   0.529
  SCANPRE                   42.20       0.00       0.00      28.27      13.42       0.00      13.42        0.45     0.24   0.318
  
  
  ******************
  Node Depth Summary
  ******************
  
  ---------------------------------------------------------------------------------
                                 Average  Maximum  Maximum  Time of Max    Reported
                                   Depth    Depth      HGL   Occurrence   Max Depth
  Node                 Type       Meters   Meters   Meters  days hr:min      Meters
  ---------------------------------------------------------------------------------
  XCAUBPAL             JUNCTION     1.52     2.31   225.79     0  01:58        2.31
  CCOROUT1             JUNCTION     0.47     0.88   224.83     0  01:46        0.88
  XSRUBPAL             JUNCTION     2.33     2.55   224.05     0  01:59        2.55
  XSCANPAL             JUNCTION     1.65     2.18   224.46     0  01:47        2.18
  SCANOUT1             JUNCTION     1.57     1.90   224.16     0  01:47        1.90
  SAUBOUT              OUTFALL      2.70     2.70   223.70     0  00:00        2.70
  SCANOUT              OUTFALL      1.60     1.60   223.70     0  00:00        1.60
  SRUBOUT              OUTFALL      2.55     2.55   223.70     0  00:00        2.55
  CAUBOUT              OUTFALL      0.73     1.02   224.31     0  01:58        1.02
  CCOROUT              OUTFALL      0.46     0.88   224.73     0  01:47        0.88
  CMRYOUT              OUTFALL      0.38     0.50   223.89     0  02:01        0.50
  CALEXAN-I            STORAGE      0.87     1.58   227.45     0  02:01        1.58
  CAUBPAL-I            STORAGE      1.55     2.34   225.76     0  01:58        2.34
  CAUBPOR              STORAGE      1.74     2.66   226.51     0  01:54        2.66
  CAUBSPS              STORAGE      1.03     1.47   224.83     0  01:58        1.47
  CAUBWOL-I            STORAGE      1.60     2.42   226.01     0  01:56        2.42
  CAUBWSM-I            STORAGE      1.61     2.46   226.19     0  01:56        2.46
  CCANPRE-I            STORAGE      0.69     1.52   227.05     0  01:51        1.52
  CCECROY-I            STORAGE      0.19     0.58   228.29     0  01:47        0.58
  CCORDIV              STORAGE      0.42     0.95   224.90     0  01:47        0.95
  CCORMID-I            STORAGE      0.55     1.04   225.15     0  01:45        1.04
  CELCGRF-I            STORAGE      0.74     1.66   227.27     0  01:45        1.66
  CELCING-I            STORAGE      0.93     1.76   227.00     0  01:50        1.76
  CHEN90-I             STORAGE      0.76     1.45   227.48     0  02:00        1.45
  CHIGMAU-I            STORAGE      0.70     1.37   227.48     0  02:00        1.37
  CLIP25               STORAGE      1.67     2.62   226.68     0  01:53        2.62
  CLIP35               STORAGE      1.62     2.58   226.89     0  01:51        2.58
  CLIPELC-I            STORAGE      1.61     2.55   226.95     0  01:51        2.55
  CLIPNOT-I            STORAGE      1.42     2.26   227.33     0  02:05        2.26
  CLIPSAR-I            STORAGE      1.56     2.47   227.07     0  01:53        2.47
  CLIPSMT-I            STORAGE      1.65     2.60   226.82     0  01:52        2.60
  CLIPWEL-I            STORAGE      1.51     2.41   227.19     0  01:52        2.41
  CLIPYAR              STORAGE      1.46     2.34   227.24     0  01:52        2.34
  CLOG80-I             STORAGE      0.82     1.51   227.46     0  02:00        1.51
  CLOGCEC-I            STORAGE      0.46     1.04   228.28     0  01:49        1.04
  CLOGELE-I            STORAGE      0.72     1.38   228.00     0  02:00        1.38
  CLOGQUE-I            STORAGE      0.61     1.28   228.23     0  01:47        1.28
  CLOGVIN-I            STORAGE      0.67     1.35   228.17     0  01:49        1.35
  CLOGWNK-I            STORAGE      0.76     1.43   227.83     0  02:01        1.43
  CLOGYEO-I            STORAGE      0.78     1.47   227.66     0  02:06        1.47
  CMCPBAN-I            STORAGE      1.17     1.97   227.38     0  02:05        1.97
  CMCPELG-I            STORAGE      1.08     1.85   227.40     0  02:05        1.85
  CMCPLOG-I            STORAGE      0.82     1.51   227.48     0  02:04        1.51
  CMCPPAC-I            STORAGE      1.05     1.77   227.43     0  02:04        1.77
  CMCPROS              STORAGE      1.05     1.80   227.42     0  02:03        1.80
  CMCPWIN-I            STORAGE      1.31     2.14   227.35     0  02:05        2.14
  CMRYCOR-I            STORAGE      0.52     1.03   225.33     0  01:47        1.03
  CMRYCSO              STORAGE      0.93     1.76   225.16     0  02:01        1.76
  CMRYWSM-I            STORAGE      0.87     1.53   226.20     0  01:49        1.53
  CNOTDOM-I            STORAGE      0.94     3.63   230.07     0  01:41        3.63
  CNOTSHB-I            STORAGE      1.07     3.30   229.28     0  01:45        3.30
  CPAC72-I             STORAGE      0.27     0.58   227.43     0  02:04        0.58
  CPAC75-I             STORAGE      0.11     0.29   228.09     0  01:45        0.29
  CPORBAN-I            STORAGE      1.12     2.42   227.14     0  01:45        2.42
  CPORBUR-I            STORAGE      1.00     2.76   227.73     0  01:45        2.74
  CPORCAN-I            STORAGE      0.60     1.29   227.11     0  01:51        1.29
  CPORDOM-I            STORAGE      1.36     4.14   229.26     0  01:45        4.14
  CPORGRE-I            STORAGE      1.30     4.53   230.07     0  01:45        4.53
  CPORHOM-I            STORAGE      0.33     0.91   227.17     0  01:50        0.91
  CPORLIP-I            STORAGE      1.71     2.64   226.56     0  01:52        2.64
  CPORSHB-I            STORAGE      1.35     3.04   227.71     0  01:46        3.04
  CPORSPR-I            STORAGE      1.10     4.16   230.50     0  01:44        4.16
  CPORWLL-I            STORAGE      1.03     3.86   230.65     0  01:41        3.86
  CPREWAL              STORAGE      0.78     1.72   227.01     0  01:48        1.72
  CSARARL-I            STORAGE      0.50     1.17   227.22     0  01:45        1.17
  CSARBUR-I            STORAGE      0.79     1.55   227.11     0  01:54        1.55
  CSIMELC-I            STORAGE      0.41     1.04   228.24     0  01:47        1.04
  CSIMPOR              STORAGE      0.55     1.21   227.17     0  01:51        1.21
  CSIMSAR-I            STORAGE      0.36     0.98   228.67     0  01:49        0.98
  CSIMSTM-I            STORAGE      0.55     1.30   227.87     0  01:50        1.30
  CSIMWEL-I            STORAGE      0.14     0.36   229.02     0  01:45        0.36
  CSMTING-I            STORAGE      0.76     1.53   226.90     0  01:51        1.53
  CSTMSHB-I            STORAGE      0.65     1.41   226.99     0  01:45        1.41
  CWALPUR-I            STORAGE      0.90     1.86   226.97     0  01:48        1.86
  CWELDOM-I            STORAGE      0.23     0.62   227.45     0  01:45        0.62
  CWELSHB-I            STORAGE      0.41     0.89   227.23     0  01:53        0.89
  CWSMARL-I            STORAGE      0.57     2.79   229.33     0  01:45        2.79
  CWSMCAN-I            STORAGE      0.70     2.62   228.59     0  01:46        2.62
  CWSMETH-I            STORAGE      0.63     2.69   228.97     0  01:46        2.69
  CWSMWAL-I            STORAGE      0.70     2.14   227.73     0  01:45        2.14
  SALEMAU-I            STORAGE      0.96     2.51   226.96     0  01:45        2.51
  SALVNOT-I            STORAGE      1.07     2.02   225.64     0  01:51        2.02
  SALVSAR-I            STORAGE      1.37     2.22   225.18     0  01:54        2.22
  SALVWEL-I            STORAGE      1.26     2.19   225.39     0  01:53        2.19
  SBUR28               STORAGE      1.82     2.41   224.66     0  01:58        2.41
  SBUREIN-I            STORAGE      1.89     2.45   224.61     0  01:58        2.45
  SBURELC-I            STORAGE      1.48     2.22   224.96     0  01:54        2.22
  SBURPOR-I            STORAGE      1.98     2.49   224.52     0  01:57        2.49
  SBURSMT-I            STORAGE      1.59     2.26   224.82     0  01:56        2.26
  SCANPAL              STORAGE      1.63     2.10   224.36     0  01:47        2.10
  SCANPRE-I            STORAGE      1.19     2.20   225.15     0  01:47        2.20
  SCANWOL-I            STORAGE      1.56     2.19   224.60     0  01:45        2.19
  SCANWSM-I            STORAGE      1.48     2.32   224.90     0  01:46        2.32
  SDUM1-I              STORAGE      0.70     1.95   227.39     0  01:46        1.95
  SDUM2-I              STORAGE      0.61     1.89   227.75     0  01:45        1.89
  SDUM3-I              STORAGE      0.24     0.82   227.81     0  01:46        0.82
  SDUM4                STORAGE      0.75     1.93   226.63     0  01:48        1.93
  SDUM5                STORAGE      0.76     1.82   226.20     0  01:49        1.82
  SELCDOM-I            STORAGE      0.20     0.51   226.27     0  01:45        0.51
  SLARWIL-I            STORAGE      1.13     2.47   226.43     0  01:46        2.47
  SLENWSM-I            STORAGE      2.15     2.53   224.30     0  01:58        2.53
  SMAULOG-I            STORAGE      0.88     2.42   226.97     0  01:45        2.42
  SMCP85-I             STORAGE      0.74     2.01   227.03     0  01:47        2.01
  SMCPMCD-I            STORAGE      1.06     2.02   225.84     0  01:47        2.02
  SMCPNOT              STORAGE      1.07     2.02   225.76     0  01:50        2.02
  SMYRWIN-I            STORAGE      0.49     1.34   225.90     0  01:49        1.34
  SNOTMYR-I            STORAGE      0.62     1.48   225.88     0  01:50        1.48
  SNOTWLL-I            STORAGE      0.17     0.52   226.67     0  01:45        0.52
  SPORDOM-I            STORAGE      0.62     1.24   224.58     0  01:46        1.24
  SPORGRE-I            STORAGE      0.30     0.79   224.59     0  01:46        0.79
  SPORSHB-I            STORAGE      2.29     2.87   224.54     0  01:46        2.87
  SPORSPR-I            STORAGE      0.21     0.55   224.67     0  01:44        0.55
  SPORWLL-I            STORAGE      0.18     0.45   224.97     0  01:45        0.45
  SRUB02               STORAGE      2.52     2.62   223.86     0  01:57        2.62
  SRUBPAL-I            STORAGE      2.35     2.54   224.00     0  01:59        2.54
  SRUBWOL-I            STORAGE      2.28     2.58   224.17     0  01:58        2.58
  SSHB33               STORAGE      1.48     2.29   224.91     0  01:48        2.29
  SSHB54-I             STORAGE      0.86     1.80   225.65     0  01:51        1.80
  SSHBELC-I            STORAGE      1.40     2.28   225.04     0  01:48        2.28
  SSHBNOT-I            STORAGE      0.81     1.75   225.82     0  01:50        1.75
  SSHBPAL-I            STORAGE      2.63     2.96   224.19     0  01:45        2.96
  SSHBSAR-I            STORAGE      1.19     2.18   225.25     0  01:49        2.18
  SSHBSTM-I            STORAGE      1.69     2.45   224.83     0  01:47        2.45
  SSHBWEL-I            STORAGE      0.99     1.98   225.45     0  01:50        1.98
  SSHBWLV-I            STORAGE      2.03     2.70   224.68     0  01:47        2.70
  SSHBWSM-I            STORAGE      2.47     2.92   224.36     0  01:45        2.92
  SSIMELC-I            STORAGE      0.74     2.17   226.87     0  01:46        2.17
  SSIMPOR-I            STORAGE      0.85     2.15   225.66     0  01:48        2.15
  SSIMSAR-I            STORAGE      0.54     1.57   227.30     0  01:46        1.57
  SSIMSTM-I            STORAGE      0.84     2.25   226.40     0  01:46        2.25
  SSIMWEL-I            STORAGE      0.39     1.15   227.39     0  01:46        1.15
  SSTMARL-I            STORAGE      0.56     1.86   226.41     0  01:47        1.86
  SSTMDOM-I            STORAGE      0.25     0.62   224.83     0  01:50        0.62
  SWELDOM-I            STORAGE      0.18     0.49   225.63     0  01:45        0.49
  SWELMRY-I            STORAGE      0.21     0.61   227.41     0  01:50        0.61
  SWELVIC-I            STORAGE      0.30     0.83   227.37     0  01:48        0.83
  SWOLHOM-I            STORAGE      0.24     0.73   224.63     0  01:45        0.73
  SWSMARL-I            STORAGE      0.12     0.30   224.94     0  01:45        0.30
  SWSMHOM-I            STORAGE      0.22     0.75   224.95     0  01:46        0.75
  SXANALE-I            STORAGE      1.01     2.58   226.91     0  01:45        2.58
  SXANELG-I            STORAGE      1.10     2.58   226.66     0  01:45        2.58
  
  
  *******************
  Node Inflow Summary
  *******************
  
  -------------------------------------------------------------------------------------------------
                                  Maximum  Maximum                  Lateral       Total        Flow
                                  Lateral    Total  Time of Max      Inflow      Inflow     Balance
                                   Inflow   Inflow   Occurrence      Volume      Volume       Error
  Node                 Type           CMS      CMS  days hr:min    10^6 ltr    10^6 ltr     Percent
  -------------------------------------------------------------------------------------------------
  XCAUBPAL             JUNCTION     0.000    5.749     0  01:50           0          30       1.310
  CCOROUT1             JUNCTION     0.000    1.933     0  01:47           0        6.46       0.006
  XSRUBPAL             JUNCTION     0.000    7.666     0  01:58           0        32.6       0.006
  XSCANPAL             JUNCTION     0.000    5.457     0  01:45           0        17.3      -0.017
  SCANOUT1             JUNCTION     0.000    5.269     0  01:47           0        17.2      -0.066
  SAUBOUT              OUTFALL      0.000    9.950     0  01:46           0        36.5       0.000
  SCANOUT              OUTFALL      0.000    5.301     0  01:47           0        17.3       0.000
  SRUBOUT              OUTFALL      0.000    7.699     0  01:59           0        32.8       0.000
  CAUBOUT              OUTFALL      0.000    5.622     0  01:58           0        29.4       0.000
  CCOROUT              OUTFALL      0.000    1.944     0  01:47           0        6.46       0.000
  CMRYOUT              OUTFALL      0.000    0.654     0  02:01           0        2.84       0.000
  CALEXAN-I            STORAGE      0.029    0.485     0  01:53      0.0549        1.73       2.381
  CAUBPAL-I            STORAGE      0.117    5.630     0  01:56       0.222        29.8       0.855
  CAUBPOR              STORAGE      0.000    6.182     0  01:46           0        29.9       1.128
  CAUBSPS              STORAGE      0.000    5.619     0  01:58           0        29.6       0.491
  CAUBWOL-I            STORAGE      0.419    5.992     0  01:48       0.793        30.3       0.969
  CAUBWSM-I            STORAGE      0.153    6.041     0  01:47        0.29        29.8       1.139
  CCANPRE-I            STORAGE      0.236    0.827     0  01:42       0.447        3.05       0.454
  CCECROY-I            STORAGE      0.040    0.130     0  01:42      0.0749      0.0898      -0.187
  CCORDIV              STORAGE      0.000    1.965     0  01:45           0        6.46       0.035
  CCORMID-I            STORAGE      0.575    2.069     0  01:45        1.09        6.47       0.179
  CELCGRF-I            STORAGE      0.782    0.782     0  01:45        1.48        1.48       0.200
  CELCING-I            STORAGE      0.296    0.970     0  01:36       0.561        2.04      -0.062
  CHEN90-I             STORAGE      0.277    0.452     0  01:40       0.525         1.1       1.208
  CHIGMAU-I            STORAGE      0.250    0.250     0  01:45       0.473       0.502       0.704
  CLIP25               STORAGE      0.000    3.217     0  02:13           0        19.9       1.627
  CLIP35               STORAGE      0.000    2.985     0  01:47           0        17.7       1.100
  CLIPELC-I            STORAGE      0.124    3.490     0  01:45       0.234          18       1.659
  CLIPNOT-I            STORAGE      0.542    2.352     0  01:44        1.03        11.3       0.806
  CLIPSAR-I            STORAGE      0.469    3.296     0  01:45       0.889          16       2.012
  CLIPSMT-I            STORAGE      0.445    3.519     0  01:45       0.843        20.2       1.255
  CLIPWEL-I            STORAGE      0.673    2.809     0  01:44        1.28        13.7       1.186
  CLIPYAR              STORAGE      0.000    1.877     0  01:44           0        11.2       1.547
  CLOG80-I             STORAGE      0.226    0.519     0  01:40        0.43        1.57       0.719
  CLOGCEC-I            STORAGE      0.338    0.372     0  01:39        0.64        0.73       0.168
  CLOGELE-I            STORAGE      0.124    0.509     0  01:37       0.235        1.74       0.335
  CLOGQUE-I            STORAGE      0.075    0.357     0  01:37       0.141       0.855       0.360
  CLOGVIN-I            STORAGE      0.347    0.539     0  01:37       0.658        1.51       0.322
  CLOGWNK-I            STORAGE      0.188    0.550     0  01:37       0.357        2.09       0.358
  CLOGYEO-I            STORAGE      0.041    0.468     0  01:37      0.0779        2.16       0.364
  CMCPBAN-I            STORAGE      0.306    1.211     0  02:23        0.58        6.31       1.081
  CMCPELG-I            STORAGE      0.142    1.095     0  02:23       0.269        5.79       1.085
  CMCPLOG-I            STORAGE      0.157    0.522     0  01:41       0.297        2.45       0.405
  CMCPPAC-I            STORAGE      0.403    1.505     0  01:41       0.764        5.83       1.181
  CMCPROS              STORAGE      0.000    1.141     0  01:44           0        5.58       0.944
  CMCPWIN-I            STORAGE      0.556    1.357     0  02:23        1.05        7.29       1.110
  CMRYCOR-I            STORAGE      0.260    2.390     0  01:45       0.493        8.25       0.200
  CMRYCSO              STORAGE      0.000    0.707     0  01:47           0        2.85       0.147
  CMRYWSM-I            STORAGE      0.124    2.244     0  01:46       0.234         7.8       0.543
  CNOTDOM-I            STORAGE      1.137    1.137     0  01:45        2.15        2.15       0.019
  CNOTSHB-I            STORAGE      0.515    1.470     0  01:39       0.975        3.04       0.914
  CPAC72-I             STORAGE      0.253    0.553     0  01:45       0.478        1.05       2.275
  CPAC75-I             STORAGE      0.300    0.300     0  01:45       0.568       0.568      -0.081
  CPORBAN-I            STORAGE      0.571    1.827     0  01:43        1.08        3.52       0.378
  CPORBUR-I            STORAGE      1.289    1.289     0  01:45        2.44        2.44      -0.014
  CPORCAN-I            STORAGE      0.127    0.756     0  01:44        0.24        2.62       0.506
  CPORDOM-I            STORAGE      0.618    2.084     0  01:43        1.17        5.55      -0.015
  CPORGRE-I            STORAGE      0.797    1.723     0  01:42        1.51        4.37      -0.043
  CPORHOM-I            STORAGE      0.260    0.260     0  01:45       0.492       0.492      -0.086
  CPORLIP-I            STORAGE      0.293    4.185     0  01:45       0.555        23.7       1.227
  CPORSHB-I            STORAGE      0.516    2.416     0  01:45       0.977        6.52       0.203
  CPORSPR-I            STORAGE      0.513    1.287     0  01:41       0.972        2.87      -0.116
  CPORWLL-I            STORAGE      1.121    1.121     0  01:45        2.12        2.12       0.145
  CPREWAL              STORAGE      0.000    0.897     0  02:00           0        3.04       0.380
  CSARARL-I            STORAGE      0.601    0.601     0  01:45        1.14        1.14       0.041
  CSARBUR-I            STORAGE      0.251    0.828     0  01:38       0.475        1.61       0.183
  CSIMELC-I            STORAGE      0.349    0.548     0  01:40       0.662        1.35       0.512
  CSIMPOR              STORAGE      0.000    0.728     0  01:45           0        2.39       0.549
  CSIMSAR-I            STORAGE      0.167    0.358     0  01:45       0.316       0.686      -0.465
  CSIMSTM-I            STORAGE      0.298    0.721     0  01:39       0.564        1.91       0.348
  CSIMWEL-I            STORAGE      0.198    0.198     0  01:45       0.374       0.374       1.147
  CSMTING-I            STORAGE      0.358    0.916     0  01:37       0.678        1.83      -0.408
  CSTMSHB-I            STORAGE      0.616    0.616     0  01:45        1.17        1.17       1.373
  CWALPUR-I            STORAGE      0.204    2.265     0  01:45       0.387        7.57       0.021
  CWELDOM-I            STORAGE      0.578    0.578     0  01:45        1.09        1.09       0.135
  CWELSHB-I            STORAGE      0.196    0.773     0  01:43       0.371        1.46       2.735
  CWSMARL-I            STORAGE      0.692    0.692     0  01:45        1.31        1.31       0.110
  CWSMCAN-I            STORAGE      0.452    1.394     0  01:45       0.856        3.12       0.065
  CWSMETH-I            STORAGE      0.506    1.094     0  01:45       0.959        2.27       0.007
  CWSMWAL-I            STORAGE      0.549    1.784     0  01:45        1.04        4.16       0.180
  SALEMAU-I            STORAGE      1.259    2.146     0  01:35        2.39        6.67       0.250
  SALVNOT-I            STORAGE      0.619    6.590     0  01:45        1.18        22.2       0.710
  SALVSAR-I            STORAGE      0.465    6.929     0  01:50       0.882        25.3       0.038
  SALVWEL-I            STORAGE      1.257    7.132     0  01:45        2.38        24.9      -1.227
  SBUR28               STORAGE      0.000    7.005     0  01:55           0        27.8      -0.017
  SBUREIN-I            STORAGE      0.776    7.215     0  01:55        1.47        29.2       0.007
  SBURELC-I            STORAGE      0.823    7.002     0  01:52        1.56        26.8       0.011
  SBURPOR-I            STORAGE      0.800    7.427     0  01:55        1.52        30.8       0.020
  SBURSMT-I            STORAGE      0.483    7.074     0  01:53       0.916        27.8       0.005
  SCANPAL              STORAGE      0.000    5.327     0  01:46           0        17.3       0.066
  SCANPRE-I            STORAGE      0.440    3.581     0  01:49       0.834        11.7      -0.023
  SCANWOL-I            STORAGE      1.120    5.622     0  01:45        2.12        17.3      -0.007
  SCANWSM-I            STORAGE      0.624    4.260     0  01:48        1.18          14       0.048
  SDUM1-I              STORAGE      1.367    3.770     0  01:40        2.59        8.24       0.377
  SDUM2-I              STORAGE      1.955    2.969     0  01:41         3.7        5.67       0.437
  SDUM3-I              STORAGE      1.039    1.039     0  01:45        1.97        1.97       0.049
  SDUM4                STORAGE      0.000    4.585     0  01:44           0         8.8       0.581
  SDUM5                STORAGE      0.000    3.754     0  01:46           0        8.75       1.350
  SELCDOM-I            STORAGE      0.939    0.939     0  01:45        1.78        1.78      -0.052
  SLARWIL-I            STORAGE      1.224    6.542     0  01:45        2.32        17.6       0.384
  SLENWSM-I            STORAGE      0.985    7.682     0  01:56        1.87        32.6       0.017
  SMAULOG-I            STORAGE      1.099    1.776     0  01:37        2.08        4.52       0.290
  SMCP85-I             STORAGE      1.532    5.442     0  01:40        2.91        11.3       0.809
  SMCPMCD-I            STORAGE      1.054    7.398     0  01:43           2        19.5       0.375
  SMCPNOT              STORAGE      0.000    7.111     0  01:44           0        21.5       0.678
  SMYRWIN-I            STORAGE      0.234    0.278     0  01:34       0.444       0.453       0.226
  SNOTMYR-I            STORAGE      0.704    1.620     0  01:42        1.33        3.11       1.452
  SNOTWLL-I            STORAGE      0.704    0.704     0  01:45        1.33        1.33       0.572
  SPORDOM-I            STORAGE      0.000    1.224     0  01:42           0        2.39      -0.278
  SPORGRE-I            STORAGE      0.299    1.262     0  01:44       0.566        2.39       0.280
  SPORSHB-I            STORAGE      0.923    8.686     0  01:51        1.75        32.4       0.003
  SPORSPR-I            STORAGE      0.299    0.961     0  01:45       0.567        1.83       0.050
  SPORWLL-I            STORAGE      0.663    0.663     0  01:45        1.26        1.26       0.040
  SRUB02               STORAGE      0.000    7.693     0  01:59           0        32.8      -0.027
  SRUBPAL-I            STORAGE      0.108    7.695     0  01:59       0.205        32.8       0.030
  SRUBWOL-I            STORAGE      0.000    7.666     0  01:58           0        32.6       0.008
  SSHB33               STORAGE      0.000    5.969     0  01:52           0        20.3       0.012
  SSHB54-I             STORAGE      0.956    4.988     0  01:46        1.81        13.8       0.528
  SSHBELC-I            STORAGE      1.006    5.750     0  01:51         1.9        20.3       0.021
  SSHBNOT-I            STORAGE      1.091    5.210     0  01:45        2.07        14.1      -0.235
  SSHBPAL-I            STORAGE      1.123    9.906     0  01:46        2.13        36.5      -0.002
  SSHBSAR-I            STORAGE      0.616    5.187     0  01:54        1.17        18.7       1.785
  SSHBSTM-I            STORAGE      1.089    6.993     0  01:52        2.06        24.7      -0.008
  SSHBWEL-I            STORAGE      0.739    5.575     0  01:45         1.4          18      -0.374
  SSHBWLV-I            STORAGE      1.887    7.851     0  01:53        3.58        28.3       0.011
  SSHBWSM-I            STORAGE      1.023    9.262     0  01:47        1.94        34.4      -0.000
  SSIMELC-I            STORAGE      1.397    2.983     0  01:40        2.65        6.77      -0.708
  SSIMPOR-I            STORAGE      0.101    3.889     0  01:41       0.192        10.8      -0.242
  SSIMSAR-I            STORAGE      1.049    1.944     0  01:41        1.99        4.17       1.012
  SSIMSTM-I            STORAGE      1.452    4.340     0  01:42        2.75        10.7       0.581
  SSIMWEL-I            STORAGE      0.353    1.088     0  01:42       0.668        2.17      -0.772
  SSTMARL-I            STORAGE      0.596    0.596     0  01:45        1.13        1.13       0.672
  SSTMDOM-I            STORAGE      0.298    1.236     0  01:45       0.564        2.34       0.222
  SWELDOM-I            STORAGE      1.073    1.073     0  01:45        2.03        2.03       1.320
  SWELMRY-I            STORAGE      0.395    0.395     0  01:45       0.749       0.749      -0.063
  SWELVIC-I            STORAGE      0.396    0.782     0  01:43        0.75         1.5       0.119
  SWOLHOM-I            STORAGE      0.599    0.599     0  01:45        1.13        1.13       0.095
  SWSMARL-I            STORAGE      0.346    0.346     0  01:45       0.655       0.655      -0.071
  SWSMHOM-I            STORAGE      0.253    0.599     0  01:45        0.48        1.13       0.145
  SXANALE-I            STORAGE      2.327    3.765     0  01:45        4.41        11.1       0.546
  SXANELG-I            STORAGE      2.179    5.626     0  01:45        4.13        15.1      -0.677
  
  
  **********************
  Node Surcharge Summary
  **********************
  
  No nodes were surcharged.
  
  
  *********************
  Node Flooding Summary
  *********************
  
  Flooding refers to all water that overflows a node, whether it ponds or not.
  --------------------------------------------------------------------------
                                                             Total   Maximum
                                 Maximum   Time of Max       Flood    Ponded
                        Hours       Rate    Occurrence      Volume     Depth
  Node                 Flooded       CMS   days hr:min    10^6 ltr    Meters
  --------------------------------------------------------------------------
  CNOTDOM-I               0.09     0.406      0  01:45       0.088     0.000
  CPORSPR-I               0.04     0.144      0  01:45       0.014     0.000
  CPORWLL-I               0.13     0.746      0  01:45       0.220     0.000
  
  
  **********************
  Storage Volume Summary
  **********************
  
  --------------------------------------------------------------------------------------------------
                         Average     Avg  Evap Exfil       Maximum     Max    Time of Max    Maximum
                          Volume    Pcnt  Pcnt  Pcnt        Volume    Pcnt     Occurrence    Outflow
  Storage Unit           1000 m3    Full  Loss  Loss       1000 m3    Full    days hr:min        CMS
  --------------------------------------------------------------------------------------------------
  CALEXAN-I                0.001       1     0     0         0.002       2       0  02:01      0.369
  CAUBPAL-I                0.002       2     0     0         0.003       3       0  01:58      5.619
  CAUBPOR                  0.007       7     0     0         0.021      21       0  01:54      5.967
  CAUBSPS                  0.001       1     0     0         0.002       2       0  01:58      5.622
  CAUBWOL-I                0.002       2     0     0         0.006       6       0  01:56      5.749
  CAUBWSM-I                0.002       2     0     0         0.006       6       0  01:56      5.804
  CCANPRE-I                0.001       2     0     0         0.007       7       0  01:51      0.897
  CCECROY-I                0.000       0     0     0         0.002       2       0  01:47      0.041
  CCORDIV                  0.001       1     0     0         0.001       1       0  01:47      1.933
  CCORMID-I                0.001       1     0     0         0.001       1       0  01:45      1.965
  CELCGRF-I                0.015      16     0     0         0.064      67       0  01:45      0.688
  CELCING-I                0.020      20     0     0         0.063      64       0  01:50      0.838
  CHEN90-I                 0.001       1     0     0         0.002       2       0  02:00      0.300
  CHIGMAU-I                0.001       1     0     0         0.002       2       0  02:00      0.175
  CLIP25                   0.008       8     0     0         0.025      26       0  01:53      3.307
  CLIP35                   0.007       7     0     0         0.022      23       0  01:51      2.882
  CLIPELC-I                0.006       6     0     0         0.020      21       0  01:51      2.985
  CLIPNOT-I                0.007       7     0     0         0.022      23       0  02:05      1.877
  CLIPSAR-I                0.007       7     0     0         0.023      23       0  01:53      2.697
  CLIPSMT-I                0.007       7     0     0         0.024      24       0  01:52      3.217
  CLIPWEL-I                0.009       9     0     0         0.029      30       0  01:52      2.275
  CLIPYAR                  0.009       9     0     0         0.027      28       0  01:52      1.912
  CLOG80-I                 0.001       1     0     0         0.002       2       0  02:00      0.392
  CLOGCEC-I                0.004       4     0     0         0.015      16       0  01:49      0.284
  CLOGELE-I                0.014      14     0     0         0.038      40       0  02:00      0.363
  CLOGQUE-I                0.009      10     0     0         0.031      32       0  01:47      0.204
  CLOGVIN-I                0.012      12     0     0         0.036      37       0  01:49      0.386
  CLOGWNK-I                0.015      16     0     0         0.043      45       0  02:01      0.427
  CLOGYEO-I                0.016      16     0     0         0.046      48       0  02:06      0.371
  CMCPBAN-I                0.002       2     0     0         0.007       8       0  02:05      1.300
  CMCPELG-I                0.001       1     0     0         0.004       4       0  02:05      1.179
  CMCPLOG-I                0.006       6     0     0         0.021      22       0  02:04      0.447
  CMCPPAC-I                0.001       1     0     0         0.003       3       0  02:04      1.141
  CMCPROS                  0.001       1     0     0         0.004       4       0  02:03      1.081
  CMCPWIN-I                0.004       5     0     0         0.015      15       0  02:05      1.438
  CMRYCOR-I                0.004       4     0     0         0.015      15       0  01:47      2.368
  CMRYCSO                  0.024      26     0     0         0.077      81       0  02:01      0.654
  CMRYWSM-I                0.001       1     0     0         0.002       2       0  01:49      2.231
  CNOTDOM-I                0.026      27     0     0         0.096     100       0  01:41      0.961
  CNOTSHB-I                0.032      33     0     0         0.095      99       0  01:45      1.204
  CPAC72-I                 0.000       0     0     0         0.001       1       0  02:04      0.552
  CPAC75-I                 0.000       0     0     0         0.000       0       0  01:45      0.300
  CPORBAN-I                0.032      32     0     0         0.094      96       0  01:45      1.715
  CPORBUR-I                0.025      26     0     0         0.095      97       0  01:45      1.257
  CPORCAN-I                0.001       1     0     0         0.002       2       0  01:51      0.724
  CPORDOM-I                0.022      22     0     0         0.075      76       0  01:45      1.906
  CPORGRE-I                0.022      23     0     0         0.089      90       0  01:45      1.467
  CPORHOM-I                0.001       1     0     0         0.008       9       0  01:50      0.247
  CPORLIP-I                0.008       8     0     0         0.026      27       0  01:52      4.046
  CPORSHB-I                0.019      19     0     0         0.049      50       0  01:46      2.303
  CPORSPR-I                0.023      23     0     0         0.098     100       0  01:44      0.928
  CPORWLL-I                0.023      24     0     0         0.099     100       0  01:41      0.777
  CPREWAL                  0.003       3     0     0         0.017      17       0  01:48      0.966
  CSARARL-I                0.005       5     0     0         0.022      23       0  01:45      0.581
  CSARBUR-I                0.013      13     0     0         0.043      44       0  01:54      0.716
  CSIMELC-I                0.003       3     0     0         0.015      16       0  01:47      0.427
  CSIMPOR                  0.001       1     0     0         0.006       6       0  01:51      0.630
  CSIMSAR-I                0.003       4     0     0         0.018      21       0  01:49      0.202
  CSIMSTM-I                0.008       8     0     0         0.032      33       0  01:50      0.495
  CSIMWEL-I                0.003       5     0     0         0.012      24       0  01:45      0.191
  CSMTING-I                0.016      17     0     0         0.052      54       0  01:51      0.855
  CSTMSHB-I                0.011      11     0     0         0.041      42       0  01:45      0.572
  CWALPUR-I                0.005       5     0     0         0.026      26       0  01:48      2.178
  CWELDOM-I                0.000       0     0     0         0.001       1       0  01:45      0.577
  CWELSHB-I                0.001       1     0     0         0.003       4       0  01:53      0.770
  CWSMARL-I                0.007      10     0     0         0.054      77       0  01:45      0.589
  CWSMCAN-I                0.008       9     0     0         0.046      55       0  01:46      1.273
  CWSMETH-I                0.008      10     0     0         0.052      67       0  01:46      0.950
  CWSMWAL-I                0.007       7     0     0         0.034      36       0  01:45      1.689
  SALEMAU-I                0.006       3     0     0         0.038      20       0  01:45      2.297
  SALVNOT-I                0.001       3     0     0         0.003       7       0  01:51      6.193
  SALVSAR-I                0.002       3     0     0         0.003       5       0  01:54      6.724
  SALVWEL-I                0.002       3     0     0         0.003       5       0  01:53      6.755
  SBUR28                   0.002       4     0     0         0.003       6       0  01:58      6.979
  SBUREIN-I                0.002       4     0     0         0.003       6       0  01:58      7.178
  SBURELC-I                0.002       4     0     0         0.003       5       0  01:54      6.916
  SBURPOR-I                0.002       5     0     0         0.004       7       0  01:57      7.392
  SBURSMT-I                0.002       4     0     0         0.003       6       0  01:56      7.005
  SCANPAL                  0.002       1     0     0         0.005       3       0  01:47      5.269
  SCANPRE-I                0.004       6     0     0         0.016      23       0  01:47      3.673
  SCANWOL-I                0.005       4     0     0         0.018      16       0  01:45      5.457
  SCANWSM-I                0.003       5     0     0         0.013      19       0  01:46      4.337
  SDUM1-I                  0.002       2     0     0         0.011      13       0  01:46      3.322
  SDUM2-I                  0.001       2     0     0         0.007      13       0  01:45      2.405
  SDUM3-I                  0.000       1     0     0         0.001       2       0  01:46      1.024
  SDUM4                    0.001       2     0     0         0.008      10       0  01:48      3.754
  SDUM5                    0.001       2     0     0         0.005       7       0  01:49      3.467
  SELCDOM-I                0.000       1     0     0         0.001       2       0  01:45      0.938
  SLARWIL-I                0.004       4     0     0         0.022      24       0  01:46      6.347
  SLENWSM-I                0.003       5     0     0         0.004       8       0  01:58      7.666
  SMAULOG-I                0.004       3     0     0         0.026      19       0  01:45      1.658
  SMCP85-I                 0.004       2     0     0         0.025      16       0  01:47      4.585
  SMCPMCD-I                0.005      16     0     0         0.012      38       0  01:47      7.111
  SMCPNOT                  0.001       3     0     0         0.002       6       0  01:50      6.656
  SMYRWIN-I                0.001       0     0     0         0.004       3       0  01:49      0.228
  SNOTMYR-I                0.001       1     0     0         0.009       7       0  01:50      1.413
  SNOTWLL-I                0.000       1     0     0         0.001       2       0  01:45      0.704
  SPORDOM-I                0.001       2     0     0         0.002       4       0  01:46      1.094
  SPORGRE-I                0.000       1     0     0         0.001       2       0  01:46      1.224
  SPORSHB-I                0.007       6     0     0         0.023      21       0  01:46      8.786
  SPORSPR-I                0.000       1     0     0         0.001       2       0  01:44      0.963
  SPORWLL-I                0.000       1     0     0         0.001       1       0  01:45      0.662
  SRUB02                   0.006      15     0     0         0.008      19       0  01:57      7.699
  SRUBPAL-I                0.004      10     0     0         0.007      16       0  01:59      7.693
  SRUBWOL-I                0.003       5     0     0         0.004       7       0  01:58      7.666
  SSHB33                   0.002       2     0     0         0.008       8       0  01:48      6.096
  SSHB54-I                 0.001       1     0     0         0.003       2       0  01:51      4.668
  SSHBELC-I                0.002       2     0     0         0.008       8       0  01:48      5.969
  SSHBNOT-I                0.002       2     0     0         0.007       7       0  01:50      4.590
  SSHBPAL-I                0.009       7     0     0         0.022      18       0  01:45      9.950
  SSHBSAR-I                0.002       2     0     0         0.005       5       0  01:49      5.434
  SSHBSTM-I                0.003       3     0     0         0.010      12       0  01:47      7.224
  SSHBWEL-I                0.001       1     0     0         0.005       5       0  01:50      5.381
  SSHBWLV-I                0.006       5     0     0         0.021      18       0  01:47      7.929
  SSHBWSM-I                0.007       6     0     0         0.021      17       0  01:45      9.326
  SSIMELC-I                0.003       4     0     0         0.018      25       0  01:46      2.381
  SSIMPOR-I                0.003       4     0     0         0.015      21       0  01:48      3.418
  SSIMSAR-I                0.001       2     0     0         0.010      13       0  01:46      1.597
  SSIMSTM-I                0.004       5     0     0         0.020      27       0  01:46      3.788
  SSIMWEL-I                0.001       1     0     0         0.003       4       0  01:46      0.900
  SSTMARL-I                0.002       4     0     0         0.012      26       0  01:47      0.537
  SSTMDOM-I                0.000       1     0     0         0.001       2       0  01:50      1.232
  SWELDOM-I                0.000       0     0     0         0.001       1       0  01:45      1.073
  SWELMRY-I                0.000       0     0     0         0.001       1       0  01:50      0.386
  SWELVIC-I                0.000       1     0     0         0.001       2       0  01:48      0.737
  SWOLHOM-I                0.000       1     0     0         0.001       2       0  01:45      0.591
  SWSMARL-I                0.000       0     0     0         0.000       1       0  01:45      0.346
  SWSMHOM-I                0.000       1     0     0         0.001       2       0  01:46      0.594
  SXANALE-I                0.005       3     0     0         0.030      21       0  01:45      3.498
  SXANELG-I                0.004       4     0     0         0.027      24       0  01:45      5.342
  
  
  ***********************
  Outfall Loading Summary
  ***********************
  
  -----------------------------------------------------------
                         Flow       Avg       Max       Total
                         Freq      Flow      Flow      Volume
  Outfall Node           Pcnt       CMS       CMS    10^6 ltr
  -----------------------------------------------------------
  SAUBOUT               98.03     4.453     9.950      36.485
  SCANOUT               97.09     2.197     5.301      17.253
  SRUBOUT               97.75     3.773     7.699      32.802
  CAUBOUT               98.50     3.050     5.622      29.448
  CCOROUT               96.34     0.831     1.944       6.460
  CMRYOUT               96.53     0.332     0.654       2.845
  -----------------------------------------------------------
  System                97.38    14.636    29.764     125.293
  
  
  ********************
  Link Flow Summary
  ********************
  
  -----------------------------------------------------------------------------
                                 Maximum  Time of Max   Maximum    Max/    Max/
                                  |Flow|   Occurrence   |Veloc|    Full    Full
  Link                 Type          CMS  days hr:min     m/sec    Flow   Depth
  -----------------------------------------------------------------------------
  CHEN90               CONDUIT     0.300     0  01:39      0.55    0.19    0.78
  CHIGMAU              CONDUIT     0.175     0  01:40      0.33    0.17    0.77
  CPORSHB              CONDUIT     2.303     0  01:45      3.51    1.37    1.00
  CPORDOM              CONDUIT     1.906     0  01:45      2.90    1.87    1.00
  CPORGRE              CONDUIT     1.467     0  01:43      2.24    1.45    1.00
  CPORSPR              CONDUIT     0.928     0  01:42      2.03    0.98    1.00
  CPORWLL              CONDUIT     0.777     0  01:41      1.70    1.24    1.00
  CPORBAN              CONDUIT     1.715     0  01:45      2.61    1.01    1.00
  CPORBUR              CONDUIT     1.257     0  01:43      1.91    1.59    1.00
  CSMTING              CONDUIT     0.855     0  01:35      2.00    0.94    1.00
  CSTMSHB              CONDUIT     0.572     0  01:36      1.48    1.49    1.00
  CELCING              CONDUIT     0.838     0  01:37      1.49    0.49    1.00
  CELCGRF              CONDUIT     0.688     0  01:36      1.63    1.31    1.00
  CWELSHB              CONDUIT     0.770     0  01:42      1.67    0.93    0.99
  CWELDOM              CONDUIT     0.577     0  01:43      1.45    0.99    0.88
  CNOTSHB              CONDUIT     1.204     0  01:44      2.64    2.29    1.00
  CNOTDOM              CONDUIT     0.961     0  01:39      2.11    1.76    1.00
  CPAC72               CONDUIT     0.552     0  01:44      1.59    0.63    0.81
  CPAC75               CONDUIT     0.300     0  01:45      1.10    0.22    0.45
  CLOGYEO              CONDUIT     0.371     0  01:47      0.81    1.07    1.00
  CLOGWNK              CONDUIT     0.427     0  01:37      0.96    1.25    1.00
  CAUBWOL              CONDUIT     5.749     0  01:50      1.76    1.44    0.84
  XCAUBPAL             CONDUIT     5.595     0  01:56      0.81    0.43    0.58
  CAUBWSM              CONDUIT     5.804     0  01:48      1.67    1.21    0.86
  CAUBPOR              CONDUIT     5.967     0  01:48      1.72    1.85    0.95
  CPORLIP              CONDUIT     4.046     0  01:50      1.21    0.92    1.00
  CLIP25               CONDUIT     3.307     0  02:14      1.06    0.99    1.00
  CLIPSMT              CONDUIT     3.217     0  02:13      1.03    0.96    1.00
  CLIP35               CONDUIT     2.882     0  02:12      0.96    0.91    1.00
  CLIPELC              CONDUIT     2.985     0  01:47      0.95    0.95    1.00
  CLIPSAR              CONDUIT     2.697     0  01:46      0.94    0.96    1.00
  CLIPWEL              CONDUIT     2.275     0  01:45      0.92    1.01    1.00
  CLIPYAR              CONDUIT     1.912     0  02:22      0.83    0.89    1.00
  CLIPNOT              CONDUIT     1.877     0  01:44      1.02    0.88    1.00
  CMCPWIN              CONDUIT     1.438     0  02:23      0.69    0.69    0.99
  CMCPBAN              CONDUIT     1.300     0  02:24      0.68    0.44    0.95
  CMCPELG              CONDUIT     1.179     0  02:24      0.69    0.50    0.88
  CMCPROS              CONDUIT     1.081     0  02:23      0.76    0.51    0.88
  CMCPPAC              CONDUIT     1.141     0  01:44      1.08    0.61    0.86
  CMCPLOG              CONDUIT     0.447     0  01:40      0.74    0.54    1.00
  CALEXAN              CONDUIT     0.476     0  01:53      0.31    0.32    0.87
  CLOG80               CONDUIT     0.392     0  01:39      0.74    0.24    0.81
  CLOGELE              CONDUIT     0.363     0  01:37      0.81    1.08    1.00
  CLOGVIN              CONDUIT     0.386     0  01:37      0.87    1.17    1.00
  CLOGQUE              CONDUIT     0.204     0  01:37      0.46    0.76    1.00
  CLOGCEC              CONDUIT     0.284     0  01:37      0.81    0.74    1.00
  CCECROY              CONDUIT     0.090     0  01:42      0.27    0.17    0.88
  CSARBUR              CONDUIT     0.716     0  01:36      1.27    0.66    1.00
  CSARARL              CONDUIT     0.581     0  01:38      1.54    0.93    1.00
  CCOROUT1             CONDUIT     1.944     0  01:47      2.91    0.48    0.54
  CCORMID              CONDUIT     1.965     0  01:45      1.61    0.96    0.66
  CMRYCOR              CONDUIT     1.662     0  01:49      1.29    0.79    0.69
  CMRYCSO              CONDUIT     0.654     0  02:01      1.66   13.09    0.83
  CMRYWSM              CONDUIT     2.231     0  01:49      1.87    1.10    0.70
  CWALPUR              CONDUIT     2.178     0  01:48      1.71    1.35    0.98
  CWSMWAL              CONDUIT     1.689     0  01:45      2.57    1.72    1.00
  CWSMCAN              CONDUIT     1.273     0  01:46      1.94    1.52    1.00
  CWSMETH              CONDUIT     0.950     0  01:45      1.45    1.11    1.00
  CWSMARL              CONDUIT     0.589     0  01:45      1.29    1.21    1.00
  CPREWAL              CONDUIT     0.966     0  02:02      0.87    0.62    1.00
  CCANPRE              CONDUIT     0.897     0  02:00      0.93    0.61    0.98
  CPORCAN              CONDUIT     0.724     0  02:01      0.90    0.54    0.89
  CSIMPOR              CONDUIT     0.630     0  01:44      1.24    0.65    1.00
  CPORHOM              CONDUIT     0.247     0  01:40      0.81    0.39    1.00
  CSIMSTM              CONDUIT     0.495     0  01:45      1.09    1.17    1.00
  CSIMELC              CONDUIT     0.427     0  01:39      1.01    0.93    1.00
  CSIMSAR              CONDUIT     0.202     0  01:39      0.72    0.98    1.00
  CSIMWEL              CONDUIT     0.191     0  01:45      0.87    0.65    0.79
  CAUBSPS              CONDUIT     5.622     0  01:58      2.09    1.02    0.44
  SSHBPAL              CONDUIT     9.950     0  01:46      1.53    1.52    0.97
  SSHBWSM              CONDUIT     9.326     0  01:48      1.46    0.91    1.00
  SPORSHB              CONDUIT     8.786     0  01:48      1.38    0.85    1.00
  SPORDOM              CONDUIT     1.094     0  01:47      0.86    0.31    0.91
  SPORGRE              CONDUIT     1.224     0  01:42      1.79    0.45    0.69
  SPORSPR              CONDUIT     0.963     0  01:44      1.54    0.35    0.49
  SPORWLL              CONDUIT     0.662     0  01:45      1.36    0.24    0.37
  SSHBWLV              CONDUIT     7.929     0  01:53      1.39    0.80    1.00
  SSHBSTM              CONDUIT     7.224     0  01:53      1.31    0.71    0.95
  SSTMDOM              CONDUIT     1.232     0  01:45      1.72    0.42    0.74
  SELCDOM              CONDUIT     0.938     0  01:45      1.89    0.35    0.43
  SSHB33               CONDUIT     6.096     0  01:53      1.42    0.82    0.95
  SSHBELC              CONDUIT     5.969     0  01:52      1.40    1.02    0.95
  SSHBSAR              CONDUIT     5.434     0  01:55      1.30    0.84    0.91
  SSHBWEL              CONDUIT     4.995     0  01:54      1.47    0.99    0.89
  SSHB54               CONDUIT     4.668     0  01:48      1.45    1.03    0.84
  SSHBNOT              CONDUIT     4.395     0  01:47      1.43    0.97    0.83
  SRS-XCON1            CONDUIT     0.802     0  01:43      0.71    0.60    1.00
  SRS-XCON2            CONDUIT     0.448     0  01:51      0.40    0.46    1.00
  SNOTMYR              CONDUIT     1.413     0  01:39      1.24    0.77    0.99
  SMYRWIN              CONDUIT     0.228     0  01:37      0.24    0.08    0.94
  SNOTWLL              CONDUIT     0.704     0  01:45      2.71    1.05    0.88
  SRUB02               CONDUIT     7.699     0  01:59      1.36    1.41    0.96
  SRUBWOL              CONDUIT     7.666     0  01:58      1.37    1.24    0.95
  XSRUBPAL             CONDUIT     7.664     0  01:59      1.00    0.70    0.64
  SLENWSM              CONDUIT     7.666     0  01:58      1.37    0.91    0.95
  SBURPOR              CONDUIT     7.392     0  01:57      1.33    1.01    0.93
  SBUREIN              CONDUIT     7.178     0  01:56      1.31    0.92    0.91
  SBUR28               CONDUIT     6.979     0  01:55      1.29    0.88    0.90
  SBURSMT              CONDUIT     7.005     0  01:55      1.47    1.07    0.89
  SBURELC              CONDUIT     6.916     0  01:53      1.46    0.97    0.88
  SALVSAR              CONDUIT     6.724     0  01:52      1.43    1.07    0.87
  SALVWEL              CONDUIT     6.755     0  01:50      1.47    1.00    0.85
  SALVNOT              CONDUIT     6.193     0  01:47      1.58    1.06    0.84
  SMCPNOT              CONDUIT     6.080     0  01:48      1.67    1.11    0.84
  SMCPMCD              CONDUIT     7.111     0  01:44      1.97    1.22    0.84
  SLARWIL              CONDUIT     6.347     0  01:43      2.14    2.20    1.00
  SXANELG              CONDUIT     5.342     0  01:45      1.79    1.43    1.00
  SXANALE              CONDUIT     3.498     0  01:45      1.37    1.52    1.00
  SALEMAU              CONDUIT     2.297     0  01:51      0.90    0.95    1.00
  SMAULOG              CONDUIT     1.658     0  01:52      0.65    0.43    1.00
  SMCP85               CONDUIT     1.114     0  01:54      0.98    0.92    1.00
  SCANOUT1             CONDUIT     5.301     0  01:47      1.85    1.68    0.89
  SCANWOL              CONDUIT     5.457     0  01:45      1.78    1.11    1.00
  XSCANPAL             CONDUIT     5.327     0  01:46      1.25    1.22    0.54
  SCANWSM              CONDUIT     4.337     0  01:48      1.45    1.32    1.00
  SWSMHOM              CONDUIT     0.594     0  01:41      1.03    0.28    0.83
  SWSMARL              CONDUIT     0.346     0  01:45      1.27    0.16    0.45
  SCANPRE              CONDUIT     3.673     0  01:49      1.44    1.13    1.00
  SSIMPOR              CONDUIT     3.418     0  01:49      1.60    0.96    1.00
  SSIMSTM              CONDUIT     3.788     0  01:41      1.87    1.24    1.00
  SSTMARL              CONDUIT     0.537     0  01:41      0.72    0.49    1.00
  SSIMELC              CONDUIT     2.381     0  01:42      1.37    1.04    1.00
  SSIMSAR              CONDUIT     1.597     0  01:40      1.56    1.03    1.00
  SSIMWEL              CONDUIT     0.900     0  01:41      1.01    0.67    0.98
  SWELVIC              CONDUIT     0.737     0  01:42      1.10    0.59    0.81
  SWELMRY              CONDUIT     0.386     0  01:43      0.81    0.30    0.58
  SWELDOM              CONDUIT     1.073     0  01:45      2.43    0.35    0.67
  SWOLHOM              CONDUIT     0.591     0  01:39      0.84    0.23    0.82
  SDUM1                CONDUIT     3.322     0  01:40      1.54    1.07    1.00
  SDUM2                CONDUIT     2.405     0  01:40      1.37    1.13    1.00
  SDUM3                CONDUIT     1.024     0  01:41      0.91    0.29    0.77
[...]
  CNOTSHB                 1.00   0.03  0.00  0.00  0.80  0.00  0.00  0.17  0.14  0.00
  CNOTDOM                 1.00   0.03  0.00  0.00  0.97  0.00  0.00  0.00  0.52  0.00
  CPAC72                  1.00   0.03  0.00  0.00  0.54  0.00  0.00  0.43  0.13  0.00
  CPAC75                  1.00   0.03  0.00  0.00  0.97  0.00  0.00  0.00  0.90  0.00
  CLOGYEO                 1.00   0.03  0.00  0.00  0.97  0.00  0.00  0.00  0.42  0.00
  CLOGWNK                 1.00   0.03  0.00  0.00  0.97  0.00  0.00  0.00  0.18  0.00
  CAUBWOL                 1.00   0.00  0.00  0.00  1.00  0.00  0.00  0.00  0.00  0.00
  XCAUBPAL                1.00   0.00  0.00  0.00  1.00  0.00  0.00  0.00  0.00  0.00
  CAUBWSM                 1.00   0.00  0.03  0.00  0.97  0.00  0.00  0.00  0.19  0.00
  CAUBPOR                 1.00   0.03  0.00  0.00  0.97  0.00  0.00  0.00  0.00  0.00
  CPORLIP                 1.00   0.03  0.00  0.00  0.97  0.00  0.00  0.00  0.04  0.00
  CLIP25                  1.00   0.03  0.00  0.00  0.97  0.00  0.00  0.00  0.17  0.00
  CLIPSMT                 1.00   0.03  0.00  0.00  0.97  0.00  0.00  0.00  0.01  0.00
  CLIP35                  1.00   0.03  0.00  0.00  0.97  0.00  0.00  0.00  0.14  0.00
  CLIPELC                 1.00   0.03  0.00  0.00  0.97  0.00  0.00  0.00  0.00  0.00
  CLIPSAR                 1.00   0.03  0.00  0.00  0.97  0.00  0.00  0.00  0.14  0.00
  CLIPWEL                 1.00   0.03  0.00  0.00  0.97  0.00  0.00  0.00  0.00  0.00
  CLIPYAR                 1.00   0.03  0.00  0.00  0.97  0.00  0.00  0.00  0.17  0.00
  CLIPNOT                 1.00   0.03  0.00  0.00  0.97  0.00  0.00  0.00  0.00  0.00
  CMCPWIN                 1.00   0.03  0.00  0.00  0.94  0.00  0.00  0.03  0.04  0.00
  CMCPBAN                 1.00   0.03  0.00  0.00  0.97  0.00  0.00  0.00  0.21  0.00
  CMCPELG                 1.00   0.03  0.00  0.00  0.97  0.00  0.00  0.00  0.25  0.00
  CMCPROS                 1.00   0.03  0.00  0.00  0.97  0.00  0.00  0.00  0.13  0.00
  CMCPPAC                 1.00   0.03  0.00  0.00  0.97  0.00  0.00  0.00  0.00  0.00
  CMCPLOG                 1.00   0.03  0.00  0.00  0.97  0.00  0.00  0.00  0.36  0.00
  CALEXAN                 1.00   0.03  0.00  0.00  0.97  0.00  0.00  0.00  0.25  0.00
  CLOG80                  1.00   0.03  0.00  0.00  0.97  0.00  0.00  0.00  0.01  0.00
  CLOGELE                 1.00   0.03  0.00  0.00  0.97  0.00  0.00  0.00  0.55  0.00
  CLOGVIN                 1.00   0.03  0.00  0.00  0.97  0.00  0.00  0.00  0.25  0.00
  CLOGQUE                 1.00   0.03  0.00  0.00  0.97  0.00  0.00  0.00  0.49  0.00
  CLOGCEC                 1.00   0.03  0.00  0.00  0.97  0.00  0.00  0.00  0.43  0.00
  CCECROY                 1.00   0.03  0.00  0.00  0.97  0.00  0.00  0.00  0.74  0.00
  CSARBUR                 1.00   0.03  0.00  0.00  0.84  0.00  0.00  0.13  0.14  0.00
  CSARARL                 1.00   0.03  0.00  0.00  0.97  0.00  0.00  0.00  0.39  0.00
  CCOROUT1                1.00   0.03  0.00  0.00  0.13  0.84  0.00  0.00  0.05  0.00
  CCORMID                 1.00   0.03  0.00  0.00  0.72  0.25  0.00  0.00  0.00  0.00
  CMRYCOR                 1.00   0.03  0.00  0.00  0.97  0.00  0.00  0.00  0.64  0.00
  CMRYCSO                 1.00   0.00  0.00  0.00  1.00  0.00  0.00  0.00  0.00  0.00
  CMRYWSM                 1.00   0.03  0.00  0.00  0.97  0.00  0.00  0.00  0.00  0.00
  CWALPUR                 1.00   0.03  0.00  0.00  0.97  0.00  0.00  0.00  0.51  0.00
  CWSMWAL                 1.00   0.03  0.00  0.00  0.80  0.00  0.00  0.17  0.24  0.00
  CWSMCAN                 1.00   0.03  0.00  0.00  0.97  0.00  0.00  0.00  0.71  0.00
  CWSMETH                 1.00   0.03  0.00  0.00  0.97  0.00  0.00  0.00  0.69  0.00
  CWSMARL                 1.00   0.03  0.00  0.00  0.97  0.00  0.00  0.00  0.73  0.00
  CPREWAL                 1.00   0.03  0.00  0.00  0.97  0.00  0.00  0.00  0.31  0.00
  CCANPRE                 1.00   0.03  0.00  0.00  0.97  0.00  0.00  0.00  0.37  0.00
  CPORCAN                 1.00   0.03  0.00  0.00  0.97  0.00  0.00  0.00  0.69  0.00
  CSIMPOR                 1.00   0.03  0.00  0.00  0.97  0.00  0.00  0.00  0.41  0.00
  CPORHOM                 1.00   0.03  0.00  0.00  0.96  0.01  0.00  0.00  0.55  0.00
  CSIMSTM                 1.00   0.03  0.00  0.00  0.97  0.00  0.00  0.00  0.56  0.00
  CSIMELC                 1.00   0.03  0.00  0.00  0.97  0.00  0.00  0.00  0.72  0.00
  CSIMSAR                 1.00   0.03  0.00  0.00  0.97  0.00  0.00  0.00  0.80  0.00
  CSIMWEL                 1.00   0.03  0.00  0.00  0.82  0.00  0.00  0.15  0.53  0.00
  CAUBSPS                 1.00   0.00  0.00  0.00  1.00  0.00  0.00  0.00  0.00  0.00
  SSHBPAL                 1.00   0.00  0.00  0.00  1.00  0.00  0.00  0.00  0.00  0.00
  SSHBWSM                 1.00   0.00  0.00  0.00  1.00  0.00  0.00  0.00  0.00  0.00
  SPORSHB                 1.00   0.00  0.00  0.00  1.00  0.00  0.00  0.00  0.00  0.00
  SPORDOM                 1.00   0.00  0.00  0.00  1.00  0.00  0.00  0.00  0.00  0.00
  SPORGRE                 1.00   0.00  0.03  0.00  0.95  0.00  0.00  0.02  0.71  0.00
  SPORSPR                 1.00   0.03  0.00  0.00  0.97  0.00  0.00  0.00  0.77  0.00
  SPORWLL                 1.00   0.03  0.00  0.00  0.97  0.00  0.00  0.00  0.87  0.00
  SSHBWLV                 1.00   0.00  0.00  0.00  1.00  0.00  0.00  0.00  0.00  0.00
  SSHBSTM                 1.00   0.00  0.00  0.00  1.00  0.00  0.00  0.00  0.00  0.00
  SSTMDOM                 1.00   0.00  0.03  0.00  0.97  0.00  0.00  0.00  0.85  0.00
  SELCDOM                 1.00   0.03  0.00  0.00  0.93  0.04  0.00  0.00  0.68  0.00
  SSHB33                  1.00   0.00  0.00  0.00  1.00  0.00  0.00  0.00  0.00  0.00
  SSHBELC                 1.00   0.00  0.00  0.00  1.00  0.00  0.00  0.00  0.00  0.00
  SSHBSAR                 1.00   0.00  0.00  0.00  1.00  0.00  0.00  0.00  0.00  0.00
  SSHBWEL                 1.00   0.00  0.00  0.00  1.00  0.00  0.00  0.00  0.18  0.00
  SSHB54                  1.00   0.00  0.03  0.00  0.92  0.00  0.00  0.05  0.14  0.00
  SSHBNOT                 1.00   0.03  0.00  0.00  0.97  0.00  0.00  0.00  0.45  0.00
  SRS-XCON1               1.00   0.03  0.00  0.00  0.97  0.00  0.00  0.00  0.23  0.00
  SRS-XCON2               1.00   0.00  0.00  0.00  1.00  0.00  0.00  0.00  0.00  0.00
  SNOTMYR                 1.00   0.03  0.00  0.00  0.81  0.00  0.00  0.16  0.29  0.00
  SMYRWIN                 1.00   0.03  0.00  0.00  0.97  0.00  0.00  0.00  0.43  0.00
  SNOTWLL                 1.00   0.03  0.00  0.00  0.27  0.02  0.00  0.68  0.12  0.00
  SRUB02                  1.00   0.00  0.00  0.00  1.00  0.00  0.00  0.00  0.00  0.00
  SRUBWOL                 1.00   0.00  0.00  0.00  1.00  0.00  0.00  0.00  0.00  0.00
  XSRUBPAL                1.00   0.00  0.00  0.00  1.00  0.00  0.00  0.00  0.00  0.00
  SLENWSM                 1.00   0.00  0.00  0.00  1.00  0.00  0.00  0.00  0.00  0.00
  SBURPOR                 1.00   0.00  0.00  0.00  1.00  0.00  0.00  0.00  0.00  0.00
  SBUREIN                 1.00   0.00  0.00  0.00  1.00  0.00  0.00  0.00  0.00  0.00
  SBUR28                  1.00   0.00  0.00  0.00  1.00  0.00  0.00  0.00  0.00  0.00
  SBURSMT                 1.00   0.00  0.00  0.00  1.00  0.00  0.00  0.00  0.00  0.00
  SBURELC                 1.00   0.00  0.00  0.00  1.00  0.00  0.00  0.00  0.00  0.00
  SALVSAR                 1.00   0.00  0.00  0.00  1.00  0.00  0.00  0.00  0.00  0.00
  SALVWEL                 1.00   0.00  0.00  0.00  1.00  0.00  0.00  0.00  0.00  0.00
  SALVNOT                 1.00   0.00  0.00  0.00  1.00  0.00  0.00  0.00  0.05  0.00
  SMCPNOT                 1.00   0.00  0.03  0.00  0.97  0.00  0.00  0.00  0.16  0.00
  SMCPMCD                 1.00   0.03  0.00  0.00  0.97  0.00  0.00  0.00  0.00  0.00
  SLARWIL                 1.00   0.03  0.00  0.00  0.97  0.00  0.00  0.00  0.04  0.00
  SXANELG                 1.00   0.03  0.00  0.00  0.97  0.00  0.00  0.00  0.03  0.00
  SXANALE                 1.00   0.03  0.00  0.00  0.83  0.00  0.00  0.14  0.00  0.00
  SALEMAU                 1.00   0.03  0.00  0.00  0.97  0.00  0.00  0.00  0.11  0.00
  SMAULOG                 1.00   0.03  0.00  0.00  0.97  0.00  0.00  0.00  0.25  0.00
  SMCP85                  1.00   0.10  0.00  0.00  0.45  0.00  0.00  0.45  0.00  0.00
  SCANOUT1                1.00   0.00  0.00  0.00  1.00  0.00  0.00  0.00  0.00  0.00
  SCANWOL                 1.00   0.00  0.00  0.00  1.00  0.00  0.00  0.00  0.00  0.00
  XSCANPAL                1.00   0.00  0.00  0.00  1.00  0.00  0.00  0.00  0.00  0.00
  SCANWSM                 1.00   0.00  0.00  0.00  1.00  0.00  0.00  0.00  0.00  0.00
  SWSMHOM                 1.00   0.00  0.03  0.00  0.97  0.00  0.00  0.00  0.82  0.00
  SWSMARL                 1.00   0.03  0.00  0.00  0.96  0.01  0.00  0.00  0.83  0.00
  SCANPRE                 1.00   0.00  0.00  0.00  1.00  0.00  0.00  0.00  0.00  0.00
  SSIMPOR                 1.00   0.00  0.00  0.00  1.00  0.00  0.00  0.00  0.47  0.00
  SSIMSTM                 1.00   0.00  0.03  0.00  0.97  0.00  0.00  0.00  0.42  0.00
  SSTMARL                 1.00   0.03  0.00  0.00  0.82  0.00  0.00  0.15  0.31  0.00
  SSIMELC                 1.00   0.03  0.00  0.00  0.97  0.00  0.00  0.00  0.62  0.00
  SSIMSAR                 1.00   0.03  0.00  0.00  0.36  0.00  0.00  0.61  0.04  0.00
  SSIMWEL                 1.00   0.03  0.00  0.00  0.97  0.00  0.00  0.00  0.84  0.00
  SWELVIC                 1.00   0.03  0.00  0.00  0.96  0.00  0.00  0.01  0.57  0.00
  SWELMRY                 1.00   0.03  0.00  0.00  0.97  0.00  0.00  0.00  0.77  0.00
  SWELDOM                 1.00   0.03  0.00  0.00  0.48  0.02  0.00  0.47  0.28  0.00
  SWOLHOM                 1.00   0.00  0.03  0.00  0.97  0.00  0.00  0.00  0.79  0.00
  SDUM1                   1.00   0.03  0.00  0.00  0.97  0.00  0.00  0.00  0.55  0.00
  SDUM2                   1.00   0.03  0.00  0.00  0.97  0.00  0.00  0.00  0.57  0.00
  SDUM3                   1.00   0.03  0.00  0.00  0.97  0.00  0.00  0.00  0.89  0.00
  SMCP85A                 1.00   0.03  0.00  0.00  0.97  0.00  0.00  0.00  0.39  0.00
  SDUM4                   1.00   0.03  0.00  0.00  0.97  0.00  0.00  0.00  0.36  0.00
  SDUM5                   1.00   0.03  0.00  0.00  0.97  0.00  0.00  0.00  0.40  0.00
  
  
  *************************
  Conduit Surcharge Summary
  *************************
  
  ----------------------------------------------------------------------------
                                                           Hours        Hours 
                         --------- Hours Full --------   Above Full   Capacity
  Conduit                Both Ends  Upstream  Dnstream   Normal Flow   Limited
  ----------------------------------------------------------------------------
  CPORSHB                     1.55      1.55      2.60      0.32         0.32
  CPORDOM                     1.01      1.01      1.55      0.57         0.55
  CPORGRE                     0.75      0.75      1.01      0.48         0.45
  CPORSPR                     0.63      0.63      0.81      0.01         0.01
  CPORWLL                     0.57      0.57      0.63      0.13         0.10
  CPORBAN                     1.50      1.50      2.59      0.01         0.01
  CPORBUR                     1.16      1.16      1.50      0.25         0.22
  CSMTING                     1.09      1.09      1.91      0.01         0.01
  CSTMSHB                     0.82      0.83      0.94      0.24         0.14
  CELCING                     1.21      1.21      2.50      0.01         0.01
  CELCGRF                     0.98      1.01      1.44      0.24         0.17
  CWELSHB                     0.01      0.01      0.58      0.01         0.01
  CWELDOM                     0.01      0.01      0.40      0.01         0.01
  CNOTSHB                     1.12      1.17      1.63      0.53         0.46
  CNOTDOM                     0.81      0.81      1.17      0.31         0.29
  CLOGYEO                     1.25      1.25      1.35      0.16         0.15
  CLOGWNK                     1.16      1.18      1.25      0.40         0.33
  CAUBWOL                     0.01      0.01      0.01      0.83         0.01
  CAUBWSM                     0.01      0.01      0.01      0.46         0.01
  CAUBPOR                     0.01      0.01      0.01      1.12         0.01
  CPORLIP                     0.27      0.27      0.29      0.01         0.01
  CLIP25                      0.24      0.24      0.27      0.01         0.01
  CLIPSMT                     0.21      0.21      0.24      0.01         0.01
  CLIP35                      0.12      0.12      0.21      0.01         0.01
  CLIPELC                     0.01      0.01      0.12      0.01         0.01
  CLIPSAR                     0.24      0.24      0.32      0.01         0.01
  CLIPWEL                     0.47      0.47      0.49      0.01         0.01
  CLIPYAR                     0.48      0.48      0.52      0.01         0.01
  CLIPNOT                     0.41      0.41      0.48      0.01         0.01
  CMCPWIN                     0.01      0.01      0.05      0.01         0.01
  CMCPLOG                     0.65      0.65      1.02      0.01         0.01
  CLOGELE                     1.07      1.07      1.18      0.28         0.25
  CLOGVIN                     0.97      0.97      1.07      0.22         0.16
  CLOGQUE                     0.89      0.89      0.97      0.01         0.01
  CLOGCEC                     0.55      0.55      0.89      0.01         0.01
  CCECROY                     0.01      0.01      0.55      0.01         0.01
  CSARBUR                     0.96      0.96      1.85      0.01         0.01
  CSARARL                     0.59      0.59      1.16      0.01         0.01
  CMRYCSO                     0.01      1.03      0.01      2.76         0.01
  CMRYWSM                     0.01      0.01      0.01      0.29         0.01
  CWALPUR                     0.01      0.31      0.01      0.50         0.01
  CWSMWAL                     0.55      0.58      0.67      0.40         0.36
  CWSMCAN                     0.50      0.50      0.58      0.36         0.34
  CWSMETH                     0.43      0.43      0.50      0.14         0.14
  CWSMARL                     0.43      0.43      0.47      0.20         0.17
  CPREWAL                     0.20      0.20      0.31      0.01         0.01
  CCANPRE                     0.01      0.01      0.20      0.01         0.01
  CSIMPOR                     0.01      0.01      0.16      0.01         0.01
  CPORHOM                     0.21      0.21      0.60      0.01         0.01
  CSIMSTM                     0.60      0.60      0.60      0.66         0.60
  CSIMELC                     0.38      0.38      0.60      0.01         0.01
  CSIMSAR                     0.40      0.40      0.48      0.01         0.01
  CSIMWEL                     0.01      0.01      0.37      0.01         0.01
  CAUBSPS                     0.01      0.01      0.01      0.18         0.01
  SSHBPAL                     0.01      0.20      0.01      0.66         0.01
  SSHBWSM                     0.15      0.15      0.31      0.01         0.01
  SPORSHB                     0.04      0.04      0.15      0.01         0.01
  SPORDOM                     0.01      0.01      0.22      0.01         0.01
  SSHBWLV                     0.02      0.02      0.21      0.01         0.01
  SSHBSTM                     0.01      0.01      0.02      0.01         0.01
  SSTMDOM                     0.01      0.01      0.18      0.01         0.01
  SSHBELC                     0.01      0.01      0.01      0.12         0.01
  SSHB54                      0.01      0.01      0.01      0.05         0.01
  SRS-XCON1                   0.54      0.54      0.84      0.01         0.01
  SRS-XCON2                   0.74      0.74      1.01      0.01         0.01
  SNOTMYR                     0.01      0.01      0.19      0.01         0.01
  SNOTWLL                     0.01      0.01      0.18      0.14         0.01
  SRUB02                      0.01      0.01      0.01      0.68         0.01
  SRUBWOL                     0.01      0.01      0.01      0.54         0.01
  SBURPOR                     0.01      0.01      0.01      0.10         0.01
  SBURSMT                     0.01      0.01      0.01      0.25         0.01
  SALVSAR                     0.01      0.01      0.01      0.21         0.01
  SALVWEL                     0.01      0.01      0.01      0.01         0.01
  SALVNOT                     0.01      0.01      0.01      0.13         0.01
  SMCPNOT                     0.01      0.01      0.01      0.18         0.01
  SMCPMCD                     0.01      0.01      0.01      0.18         0.01
  SLARWIL                     0.14      0.35      0.14      0.62         0.14
  SXANELG                     0.34      0.34      0.35      0.33         0.23
  SXANALE                     0.34      0.37      0.34      0.52         0.34
  SALEMAU                     0.34      0.34      0.37      0.01         0.03
  SMAULOG                     0.29      0.29      0.34      0.01         0.01
  SMCP85                      0.24      0.24      0.29      0.01         0.02
  SCANOUT1                    0.01      0.01      0.01      0.66         0.01
  SCANWOL                     0.28      0.28      0.31      0.15         0.13
  XSCANPAL                    0.01      0.01      0.01      0.34         0.01
  SCANWSM                     0.31      0.35      0.31      0.50         0.31
  SWSMHOM                     0.01      0.01      0.39      0.01         0.01
  SCANPRE                     0.32      0.32      0.33      0.33         0.27
  SSIMPOR                     0.32      0.32      0.42      0.01         0.01
  SSIMSTM                     0.27      0.29      0.32      0.25         0.17
  SSTMARL                     0.36      0.36      0.45      0.01         0.01
  SSIMELC                     0.32      0.32      0.37      0.07         0.04
  SSIMSAR                     0.22      0.22      0.31      0.02         0.01
  SSIMWEL                     0.01      0.01      0.22      0.01         0.01
  SWELDOM                     0.01      0.01      0.20      0.01         0.01
  SWOLHOM                     0.01      0.01      0.85      0.01         0.01
  SDUM1                       0.09      0.09      0.12      0.07         0.01
  SDUM2                       0.18      0.20      0.20      0.13         0.06
  SDUM3                       0.01      0.01      0.20      0.01         0.01
  SMCP85A                     0.07      0.12      0.08      0.17         0.04
  SDUM4                       0.07      0.08      0.07      0.19         0.07
  SDUM5                       0.01      0.07      0.01      0.20         0.01
  
  
  ***************
  Pumping Summary
  ***************
  
  ---------------------------------------------------------------------------------------------------------
                                                  Min       Avg       Max     Total     Power    % Time Off
                        Percent   Number of      Flow      Flow      Flow    Volume     Usage    Pump Curve
  Pump                 Utilized   Start-Ups       CMS       CMS       CMS  10^6 ltr     Kw-hr    Low   High
  ---------------------------------------------------------------------------------------------------------
  PUMP@SCANPAL-SCANOUT1    88.19          27      0.00      2.25      5.27    17.245      4.46    0.0    0.0
  PUMP@SRUBPAL-I-SRUB02    85.92          46      0.00      3.96      7.69    32.784      6.84    0.0    0.0
  PUMP@CAUBPAL-I-CAUBSPS   100.00           1      0.00      3.04      5.62    29.585     57.46   32.5    0.0
  PUMP@CCORDIV-CCOROUT1    92.69           1      0.00      0.83      1.93     6.461      1.16    0.0    0.0
  PUMP@CMRYCOR-I-CMRYCSO    93.54           1      0.00      0.34      0.71     2.849      3.33    0.0    0.0
  

  Analysis begun on:  Fri Nov 29 07:54:23 2019
  Analysis ended on:  Fri Nov 29 07:54:23 2019
  Total elapsed time: < 1 sec